<?xml version="1.0" encoding="UTF-8"?>

<!-- generated on Wed Dec  2 13:56:02 2020 by SUMO duarouter Version 0.32.0
<?xml version="1.0" encoding="UTF-8"?>

<configuration xmlns:xsi="http://www.w3.org/2001/XMLSchema-instance" xsi:noNamespaceSchemaLocation="http://sumo.dlr.de/xsd/duarouterConfiguration.xsd">

    <input>
        <net-file value="grid.net.xml"/>
        <route-files value="trips.trips.xml"/>
    </input>

    <output>
        <output-file value="grid_un_fixed.rou.xml"/>
        <alternatives-output value="grid_un_fixed.rou.alt.xml"/>
    </output>

    <processing>
        <ignore-errors value="true"/>
    </processing>

    <time>
        <begin value="0"/>
        <end value="100.0"/>
    </time>

    <report>
        <no-warnings value="true"/>
        <no-step-log value="true"/>
    </report>

</configuration>
-->

<routes xmlns:xsi="http://www.w3.org/2001/XMLSchema-instance" xsi:noNamespaceSchemaLocation="http://sumo.dlr.de/xsd/routes_file.xsd">
    <vehicle id="0.0" depart="0.00">
        <route edges="1/2to1/1 1/1to0/1"/>
    </vehicle>
    <vehicle id="2.0" depart="0.00">
        <route edges="1/0to1/1 1/1to2/1"/>
    </vehicle>
    <vehicle id="0.1" depart="5.00">
        <route edges="1/2to1/1 1/1to0/1"/>
    </vehicle>
    <vehicle id="2.1" depart="5.00">
        <route edges="1/0to1/1 1/1to2/1"/>
    </vehicle>
    <vehicle id="0.2" depart="10.00">
        <route edges="1/2to1/1 1/1to0/1"/>
    </vehicle>
    <vehicle id="2.2" depart="10.00">
        <route edges="1/0to1/1 1/1to2/1"/>
    </vehicle>
    <vehicle id="0.3" depart="15.00">
        <route edges="1/2to1/1 1/1to0/1"/>
    </vehicle>
    <vehicle id="2.3" depart="15.00">
        <route edges="1/0to1/1 1/1to2/1"/>
    </vehicle>
    <vehicle id="0.4" depart="20.00">
        <route edges="1/2to1/1 1/1to0/1"/>
    </vehicle>
    <vehicle id="2.4" depart="20.00">
        <route edges="1/0to1/1 1/1to2/1"/>
    </vehicle>
    <vehicle id="0.5" depart="25.00">
        <route edges="1/2to1/1 1/1to0/1"/>
    </vehicle>
    <vehicle id="2.5" depart="25.00">
        <route edges="1/0to1/1 1/1to2/1"/>
    </vehicle>
    <vehicle id="0.6" depart="30.00">
        <route edges="1/2to1/1 1/1to0/1"/>
    </vehicle>
    <vehicle id="2.6" depart="30.00">
        <route edges="1/0to1/1 1/1to2/1"/>
    </vehicle>
    <vehicle id="0.7" depart="35.00">
        <route edges="1/2to1/1 1/1to0/1"/>
    </vehicle>
    <vehicle id="2.7" depart="35.00">
        <route edges="1/0to1/1 1/1to2/1"/>
    </vehicle>
    <vehicle id="0.8" depart="40.00">
        <route edges="1/2to1/1 1/1to0/1"/>
    </vehicle>
    <vehicle id="2.8" depart="40.00">
        <route edges="1/0to1/1 1/1to2/1"/>
    </vehicle>
    <vehicle id="0.9" depart="45.00">
        <route edges="1/2to1/1 1/1to0/1"/>
    </vehicle>
    <vehicle id="2.9" depart="45.00">
        <route edges="1/0to1/1 1/1to2/1"/>
    </vehicle>
    <vehicle id="0.10" depart="50.00">
        <route edges="1/2to1/1 1/1to0/1"/>
    </vehicle>
    <vehicle id="2.10" depart="50.00">
        <route edges="1/0to1/1 1/1to2/1"/>
    </vehicle>
    <vehicle id="0.11" depart="55.00">
        <route edges="1/2to1/1 1/1to0/1"/>
    </vehicle>
    <vehicle id="2.11" depart="55.00">
        <route edges="1/0to1/1 1/1to2/1"/>
    </vehicle>
    <vehicle id="0.12" depart="60.00">
        <route edges="1/2to1/1 1/1to0/1"/>
    </vehicle>
    <vehicle id="2.12" depart="60.00">
        <route edges="1/0to1/1 1/1to2/1"/>
    </vehicle>
    <vehicle id="0.13" depart="65.00">
        <route edges="1/2to1/1 1/1to0/1"/>
    </vehicle>
    <vehicle id="2.13" depart="65.00">
        <route edges="1/0to1/1 1/1to2/1"/>
    </vehicle>
    <vehicle id="0.14" depart="70.00">
        <route edges="1/2to1/1 1/1to0/1"/>
    </vehicle>
    <vehicle id="2.14" depart="70.00">
        <route edges="1/0to1/1 1/1to2/1"/>
    </vehicle>
    <vehicle id="0.15" depart="75.00">
        <route edges="1/2to1/1 1/1to0/1"/>
    </vehicle>
    <vehicle id="2.15" depart="75.00">
        <route edges="1/0to1/1 1/1to2/1"/>
    </vehicle>
    <vehicle id="0.16" depart="80.00">
        <route edges="1/2to1/1 1/1to0/1"/>
    </vehicle>
    <vehicle id="2.16" depart="80.00">
        <route edges="1/0to1/1 1/1to2/1"/>
    </vehicle>
    <vehicle id="0.17" depart="85.00">
        <route edges="1/2to1/1 1/1to0/1"/>
    </vehicle>
    <vehicle id="2.17" depart="85.00">
        <route edges="1/0to1/1 1/1to2/1"/>
    </vehicle>
    <vehicle id="0.18" depart="90.00">
        <route edges="1/2to1/1 1/1to0/1"/>
    </vehicle>
    <vehicle id="2.18" depart="90.00">
        <route edges="1/0to1/1 1/1to2/1"/>
    </vehicle>
    <vehicle id="0.19" depart="95.00">
        <route edges="1/2to1/1 1/1to0/1"/>
    </vehicle>
    <vehicle id="2.19" depart="95.00">
        <route edges="1/0to1/1 1/1to2/1"/>
    </vehicle>
</routes>
