<?xml version="1.0" ?>
<routes>
	<vType accel="2.6" color="1,1,0" decel="4.5" id="vtype0" length="2.5" maxSpeed="14" minGap="2.5" sigma="0.5"/>
	<route edges="1/2to1/1 1/1to0/1" id="route0"/>
	<flow begin="0" id="flow0" number="6000" period="0.1" route="route0" type="vtype0"/>
	<route edges="1/0to1/1 1/1to2/1" id="route1"/>
	<flow begin="0" id="flow1" number="6000" period="0.1" route="route1" type="vtype0"/>
</routes>
