<?xml version="1.0" encoding="UTF-8"?>

<!-- generated on Tue Dec  1 23:06:33 2020 by SUMO duarouter Version 0.32.0
<?xml version="1.0" encoding="UTF-8"?>

<configuration xmlns:xsi="http://www.w3.org/2001/XMLSchema-instance" xsi:noNamespaceSchemaLocation="http://sumo.dlr.de/xsd/duarouterConfiguration.xsd">

    <input>
        <net-file value="grid.net.xml"/>
        <route-files value="trips.trips.xml"/>
    </input>

    <output>
        <output-file value="grid_un_fixed.rou.xml"/>
        <alternatives-output value="grid_un_fixed.rou.alt.xml"/>
    </output>

    <processing>
        <ignore-errors value="true"/>
    </processing>

    <time>
        <begin value="0"/>
        <end value="100.0"/>
    </time>

    <report>
        <no-warnings value="true"/>
        <no-step-log value="true"/>
    </report>

</configuration>
-->

<routes xmlns:xsi="http://www.w3.org/2001/XMLSchema-instance" xsi:noNamespaceSchemaLocation="http://sumo.dlr.de/xsd/routes_file.xsd">
    <vehicle id="3.0" depart="0.00">
        <route edges="2/2to2/1 2/1to1/1"/>
    </vehicle>
    <vehicle id="3.1" depart="4.00">
        <route edges="2/2to2/1 2/1to1/1"/>
    </vehicle>
    <vehicle id="3.2" depart="8.00">
        <route edges="2/2to2/1 2/1to1/1"/>
    </vehicle>
    <vehicle id="3.3" depart="12.00">
        <route edges="2/2to2/1 2/1to1/1"/>
    </vehicle>
    <vehicle id="3.4" depart="16.00">
        <route edges="2/2to2/1 2/1to1/1"/>
    </vehicle>
    <vehicle id="3.5" depart="20.00">
        <route edges="2/2to2/1 2/1to1/1"/>
    </vehicle>
    <vehicle id="3.6" depart="24.00">
        <route edges="2/2to2/1 2/1to1/1"/>
    </vehicle>
    <vehicle id="3.7" depart="28.00">
        <route edges="2/2to2/1 2/1to1/1"/>
    </vehicle>
    <vehicle id="3.8" depart="32.00">
        <route edges="2/2to2/1 2/1to1/1"/>
    </vehicle>
    <vehicle id="3.9" depart="36.00">
        <route edges="2/2to2/1 2/1to1/1"/>
    </vehicle>
    <vehicle id="3.10" depart="40.00">
        <route edges="2/2to2/1 2/1to1/1"/>
    </vehicle>
    <vehicle id="3.11" depart="44.00">
        <route edges="2/2to2/1 2/1to1/1"/>
    </vehicle>
    <vehicle id="3.12" depart="48.00">
        <route edges="2/2to2/1 2/1to1/1"/>
    </vehicle>
    <vehicle id="3.13" depart="52.00">
        <route edges="2/2to2/1 2/1to1/1"/>
    </vehicle>
    <vehicle id="3.14" depart="56.00">
        <route edges="2/2to2/1 2/1to1/1"/>
    </vehicle>
    <vehicle id="3.15" depart="60.00">
        <route edges="2/2to2/1 2/1to1/1"/>
    </vehicle>
    <vehicle id="3.16" depart="64.00">
        <route edges="2/2to2/1 2/1to1/1"/>
    </vehicle>
    <vehicle id="3.17" depart="68.00">
        <route edges="2/2to2/1 2/1to1/1"/>
    </vehicle>
    <vehicle id="3.18" depart="72.00">
        <route edges="2/2to2/1 2/1to1/1"/>
    </vehicle>
    <vehicle id="3.19" depart="76.00">
        <route edges="2/2to2/1 2/1to1/1"/>
    </vehicle>
    <vehicle id="3.20" depart="80.00">
        <route edges="2/2to2/1 2/1to1/1"/>
    </vehicle>
    <vehicle id="3.21" depart="84.00">
        <route edges="2/2to2/1 2/1to1/1"/>
    </vehicle>
    <vehicle id="3.22" depart="88.00">
        <route edges="2/2to2/1 2/1to1/1"/>
    </vehicle>
    <vehicle id="3.23" depart="92.00">
        <route edges="2/2to2/1 2/1to1/1"/>
    </vehicle>
    <vehicle id="3.24" depart="96.00">
        <route edges="2/2to2/1 2/1to1/1"/>
    </vehicle>
</routes>
