<?xml version="1.0" encoding="UTF-8"?>
<!-- generated on 2020-12-01 20:41:14.734124 by $Id$ via randomTrips.py
  options: <doubleminus>validate <doubleminus>min-distance=200 -e 100 -n grid.net.xml <doubleminus>flow=3 <doubleminus>route-file=grid_un_fixed.rou.xml
-->
<routes xmlns:xsi="http://www.w3.org/2001/XMLSchema-instance" xsi:noNamespaceSchemaLocation="http://sumo.dlr.de/xsd/routes_file.xsd">
    <trip id="1.0" depart="0.00" from="1/0to2/0" to="2/1to2/2"/>
    <trip id="1.1" depart="3.00" from="1/0to2/0" to="2/1to2/2"/>
    <trip id="1.2" depart="6.00" from="1/0to2/0" to="2/1to2/2"/>
    <trip id="1.3" depart="9.00" from="1/0to2/0" to="2/1to2/2"/>
    <trip id="1.4" depart="12.00" from="1/0to2/0" to="2/1to2/2"/>
    <trip id="1.5" depart="15.00" from="1/0to2/0" to="2/1to2/2"/>
    <trip id="1.6" depart="18.00" from="1/0to2/0" to="2/1to2/2"/>
    <trip id="1.7" depart="21.00" from="1/0to2/0" to="2/1to2/2"/>
    <trip id="1.8" depart="24.00" from="1/0to2/0" to="2/1to2/2"/>
    <trip id="1.9" depart="27.00" from="1/0to2/0" to="2/1to2/2"/>
    <trip id="1.10" depart="30.00" from="1/0to2/0" to="2/1to2/2"/>
    <trip id="1.11" depart="33.00" from="1/0to2/0" to="2/1to2/2"/>
    <trip id="1.12" depart="36.00" from="1/0to2/0" to="2/1to2/2"/>
    <trip id="1.13" depart="39.00" from="1/0to2/0" to="2/1to2/2"/>
    <trip id="1.14" depart="42.00" from="1/0to2/0" to="2/1to2/2"/>
    <trip id="1.15" depart="45.00" from="1/0to2/0" to="2/1to2/2"/>
    <trip id="1.16" depart="48.00" from="1/0to2/0" to="2/1to2/2"/>
    <trip id="1.17" depart="51.00" from="1/0to2/0" to="2/1to2/2"/>
    <trip id="1.18" depart="54.00" from="1/0to2/0" to="2/1to2/2"/>
    <trip id="1.19" depart="57.00" from="1/0to2/0" to="2/1to2/2"/>
    <trip id="1.20" depart="60.00" from="1/0to2/0" to="2/1to2/2"/>
    <trip id="1.21" depart="63.00" from="1/0to2/0" to="2/1to2/2"/>
    <trip id="1.22" depart="66.00" from="1/0to2/0" to="2/1to2/2"/>
    <trip id="1.23" depart="69.00" from="1/0to2/0" to="2/1to2/2"/>
    <trip id="1.24" depart="72.00" from="1/0to2/0" to="2/1to2/2"/>
    <trip id="1.25" depart="75.00" from="1/0to2/0" to="2/1to2/2"/>
    <trip id="1.26" depart="78.00" from="1/0to2/0" to="2/1to2/2"/>
    <trip id="1.27" depart="81.00" from="1/0to2/0" to="2/1to2/2"/>
    <trip id="1.28" depart="84.00" from="1/0to2/0" to="2/1to2/2"/>
    <trip id="1.29" depart="87.00" from="1/0to2/0" to="2/1to2/2"/>
    <trip id="1.30" depart="90.00" from="1/0to2/0" to="2/1to2/2"/>
    <trip id="1.31" depart="93.00" from="1/0to2/0" to="2/1to2/2"/>
    <trip id="1.32" depart="96.00" from="1/0to2/0" to="2/1to2/2"/>
    <trip id="1.33" depart="99.00" from="1/0to2/0" to="2/1to2/2"/>
</routes>
