<?xml version="1.0" encoding="UTF-8"?>
<!-- generated on 2020-12-01 23:24:14.339167 by $Id$ via randomTrips.py
  options: <doubleminus>validate <doubleminus>min-distance=100 -e 100 -n grid.net.xml <doubleminus>flow=4 <doubleminus>route-file=grid_un_fixed.rou.xml
-->
<routes xmlns:xsi="http://www.w3.org/2001/XMLSchema-instance" xsi:noNamespaceSchemaLocation="http://sumo.dlr.de/xsd/routes_file.xsd">
    <trip id="2.0" depart="0.00" from="1/1to1/0" to="0/0to0/1"/>
    <trip id="3.0" depart="0.00" from="2/1to2/0" to="2/0to1/0"/>
    <trip id="2.1" depart="4.00" from="1/1to1/0" to="0/0to0/1"/>
    <trip id="3.1" depart="4.00" from="2/1to2/0" to="2/0to1/0"/>
    <trip id="2.2" depart="8.00" from="1/1to1/0" to="0/0to0/1"/>
    <trip id="3.2" depart="8.00" from="2/1to2/0" to="2/0to1/0"/>
    <trip id="2.3" depart="12.00" from="1/1to1/0" to="0/0to0/1"/>
    <trip id="3.3" depart="12.00" from="2/1to2/0" to="2/0to1/0"/>
    <trip id="2.4" depart="16.00" from="1/1to1/0" to="0/0to0/1"/>
    <trip id="3.4" depart="16.00" from="2/1to2/0" to="2/0to1/0"/>
    <trip id="2.5" depart="20.00" from="1/1to1/0" to="0/0to0/1"/>
    <trip id="3.5" depart="20.00" from="2/1to2/0" to="2/0to1/0"/>
    <trip id="2.6" depart="24.00" from="1/1to1/0" to="0/0to0/1"/>
    <trip id="3.6" depart="24.00" from="2/1to2/0" to="2/0to1/0"/>
    <trip id="2.7" depart="28.00" from="1/1to1/0" to="0/0to0/1"/>
    <trip id="3.7" depart="28.00" from="2/1to2/0" to="2/0to1/0"/>
    <trip id="2.8" depart="32.00" from="1/1to1/0" to="0/0to0/1"/>
    <trip id="3.8" depart="32.00" from="2/1to2/0" to="2/0to1/0"/>
    <trip id="2.9" depart="36.00" from="1/1to1/0" to="0/0to0/1"/>
    <trip id="3.9" depart="36.00" from="2/1to2/0" to="2/0to1/0"/>
    <trip id="2.10" depart="40.00" from="1/1to1/0" to="0/0to0/1"/>
    <trip id="3.10" depart="40.00" from="2/1to2/0" to="2/0to1/0"/>
    <trip id="2.11" depart="44.00" from="1/1to1/0" to="0/0to0/1"/>
    <trip id="3.11" depart="44.00" from="2/1to2/0" to="2/0to1/0"/>
    <trip id="2.12" depart="48.00" from="1/1to1/0" to="0/0to0/1"/>
    <trip id="3.12" depart="48.00" from="2/1to2/0" to="2/0to1/0"/>
    <trip id="2.13" depart="52.00" from="1/1to1/0" to="0/0to0/1"/>
    <trip id="3.13" depart="52.00" from="2/1to2/0" to="2/0to1/0"/>
    <trip id="2.14" depart="56.00" from="1/1to1/0" to="0/0to0/1"/>
    <trip id="3.14" depart="56.00" from="2/1to2/0" to="2/0to1/0"/>
    <trip id="2.15" depart="60.00" from="1/1to1/0" to="0/0to0/1"/>
    <trip id="3.15" depart="60.00" from="2/1to2/0" to="2/0to1/0"/>
    <trip id="2.16" depart="64.00" from="1/1to1/0" to="0/0to0/1"/>
    <trip id="3.16" depart="64.00" from="2/1to2/0" to="2/0to1/0"/>
    <trip id="2.17" depart="68.00" from="1/1to1/0" to="0/0to0/1"/>
    <trip id="3.17" depart="68.00" from="2/1to2/0" to="2/0to1/0"/>
    <trip id="2.18" depart="72.00" from="1/1to1/0" to="0/0to0/1"/>
    <trip id="3.18" depart="72.00" from="2/1to2/0" to="2/0to1/0"/>
    <trip id="2.19" depart="76.00" from="1/1to1/0" to="0/0to0/1"/>
    <trip id="3.19" depart="76.00" from="2/1to2/0" to="2/0to1/0"/>
    <trip id="2.20" depart="80.00" from="1/1to1/0" to="0/0to0/1"/>
    <trip id="3.20" depart="80.00" from="2/1to2/0" to="2/0to1/0"/>
    <trip id="2.21" depart="84.00" from="1/1to1/0" to="0/0to0/1"/>
    <trip id="3.21" depart="84.00" from="2/1to2/0" to="2/0to1/0"/>
    <trip id="2.22" depart="88.00" from="1/1to1/0" to="0/0to0/1"/>
    <trip id="3.22" depart="88.00" from="2/1to2/0" to="2/0to1/0"/>
    <trip id="2.23" depart="92.00" from="1/1to1/0" to="0/0to0/1"/>
    <trip id="3.23" depart="92.00" from="2/1to2/0" to="2/0to1/0"/>
    <trip id="2.24" depart="96.00" from="1/1to1/0" to="0/0to0/1"/>
    <trip id="3.24" depart="96.00" from="2/1to2/0" to="2/0to1/0"/>
</routes>
