<?xml version="1.0" encoding="UTF-8"?>
<!-- generated on 2020-12-02 13:56:02.700635 by $Id$ via randomTrips.py
  options: <doubleminus>validate <doubleminus>min-distance=100 -e 100 -n grid.net.xml <doubleminus>flow=5 <doubleminus>route-file=grid_un_fixed.rou.xml
-->
<routes xmlns:xsi="http://www.w3.org/2001/XMLSchema-instance" xsi:noNamespaceSchemaLocation="http://sumo.dlr.de/xsd/routes_file.xsd">
    <trip id="0.0" depart="0.00" from="0/1to1/1" to="1/1to1/2"/>
    <trip id="2.0" depart="0.00" from="2/1to1/1" to="1/1to1/0"/>
    <trip id="0.1" depart="5.00" from="0/1to1/1" to="1/1to1/2"/>
    <trip id="2.1" depart="5.00" from="2/1to1/1" to="1/1to1/0"/>
    <trip id="0.2" depart="10.00" from="0/1to1/1" to="1/1to1/2"/>
    <trip id="2.2" depart="10.00" from="2/1to1/1" to="1/1to1/0"/>
    <trip id="0.3" depart="15.00" from="0/1to1/1" to="1/1to1/2"/>
    <trip id="2.3" depart="15.00" from="2/1to1/1" to="1/1to1/0"/>
    <trip id="0.4" depart="20.00" from="0/1to1/1" to="1/1to1/2"/>
    <trip id="2.4" depart="20.00" from="2/1to1/1" to="1/1to1/0"/>
    <trip id="0.5" depart="25.00" from="0/1to1/1" to="1/1to1/2"/>
    <trip id="2.5" depart="25.00" from="2/1to1/1" to="1/1to1/0"/>
    <trip id="0.6" depart="30.00" from="0/1to1/1" to="1/1to1/2"/>
    <trip id="2.6" depart="30.00" from="2/1to1/1" to="1/1to1/0"/>
    <trip id="0.7" depart="35.00" from="0/1to1/1" to="1/1to1/2"/>
    <trip id="2.7" depart="35.00" from="2/1to1/1" to="1/1to1/0"/>
    <trip id="0.8" depart="40.00" from="0/1to1/1" to="1/1to1/2"/>
    <trip id="2.8" depart="40.00" from="2/1to1/1" to="1/1to1/0"/>
    <trip id="0.9" depart="45.00" from="0/1to1/1" to="1/1to1/2"/>
    <trip id="2.9" depart="45.00" from="2/1to1/1" to="1/1to1/0"/>
    <trip id="0.10" depart="50.00" from="0/1to1/1" to="1/1to1/2"/>
    <trip id="2.10" depart="50.00" from="2/1to1/1" to="1/1to1/0"/>
    <trip id="0.11" depart="55.00" from="0/1to1/1" to="1/1to1/2"/>
    <trip id="2.11" depart="55.00" from="2/1to1/1" to="1/1to1/0"/>
    <trip id="0.12" depart="60.00" from="0/1to1/1" to="1/1to1/2"/>
    <trip id="2.12" depart="60.00" from="2/1to1/1" to="1/1to1/0"/>
    <trip id="0.13" depart="65.00" from="0/1to1/1" to="1/1to1/2"/>
    <trip id="2.13" depart="65.00" from="2/1to1/1" to="1/1to1/0"/>
    <trip id="0.14" depart="70.00" from="0/1to1/1" to="1/1to1/2"/>
    <trip id="2.14" depart="70.00" from="2/1to1/1" to="1/1to1/0"/>
    <trip id="0.15" depart="75.00" from="0/1to1/1" to="1/1to1/2"/>
    <trip id="2.15" depart="75.00" from="2/1to1/1" to="1/1to1/0"/>
    <trip id="0.16" depart="80.00" from="0/1to1/1" to="1/1to1/2"/>
    <trip id="2.16" depart="80.00" from="2/1to1/1" to="1/1to1/0"/>
    <trip id="0.17" depart="85.00" from="0/1to1/1" to="1/1to1/2"/>
    <trip id="2.17" depart="85.00" from="2/1to1/1" to="1/1to1/0"/>
    <trip id="0.18" depart="90.00" from="0/1to1/1" to="1/1to1/2"/>
    <trip id="2.18" depart="90.00" from="2/1to1/1" to="1/1to1/0"/>
    <trip id="0.19" depart="95.00" from="0/1to1/1" to="1/1to1/2"/>
    <trip id="2.19" depart="95.00" from="2/1to1/1" to="1/1to1/0"/>
</routes>
