<?xml version="1.0" ?>
<routes>
	<vType accel="2.6" color="1,1,0" decel="4.5" id="vtype0" length="2.5" maxSpeed="14" minGap="2.5" sigma="0.5"/>
	<route edges="40189286 -40189286 -115982659#2 -115982659#1 -115982659#0 238688429#6 238688429#7 238688429#8 238688429#9 238688429#10 238688429#11 238688429#12 98423430#0 98423430#1 98423430#2 98423430#3 98423430#4 98423430#5 98423430#6 98423430#7 98423430#8 98423430#9 98423430#10 98423430#11 98423430#12 -115982706#0 -115983243 -115993717#3 -115993717#2 -115993717#1 -115993717#0 -99484724#1 -99484724#0 115993532#0 115993532#1 -115993421#1 -115993421#0 115993396#0 115993396#1 -115993414#5 -115993414#4 -115993414#3 -115993414#2 -115993414#1 -115993414#0 115993557#0 115993557#1 115993557#2 115993557#3 -115993651 -115993499#1 -115993499#0 53542664#11 53542664#12 53542664#13 53542664#14 53542664#15 53542664#16 115993660#0 115993660#1 115993481#0 115993481#1 115993481#2 115993481#3 115993481#4 115993481#5 -115993481#5" id="route0"/>
	<flow begin="0" id="flow0" number="6000" period="0.1" route="route0" type="vtype0"/>
	<route edges="115521586#2 183582651 115521496#2 115521496#3 115521496#4 115521496#5 115521496#6 115521496#7 115521496#8 41696498#4 41696498#5 41696498#6 41696498#7 41696498#8 41696498#9 41696498#10 41696498#11 41696498#12 41696498#13 41696498#14 41696498#15 41696498#16 41696498#17 41696498#18 41696498#19 41696498#20 41696498#21 41696498#22 41696498#23 41696498#24 41696498#25 41696498#26 41696498#27 41696498#28 41696498#29 41696498#30 41696498#31 41696498#32 41696498#33 41696498#34 41696498#35 41696498#36 386291074#0 386291074#1 386291074#2 386291074#3 386291074#4 386291074#5 386291074#6 386291074#7 386291074#8 386291074#9 386291074#10 386291074#11 386291074#12 386291074#13 -386291074#13" id="route1"/>
	<flow begin="0" id="flow1" number="6000" period="0.1" route="route1" type="vtype0"/>
	<route edges="130443369#7 130443369#8 130443369#9 576954812 -386291074#16 -386291074#15 -386291074#14 34998617#0 34998617#1 34998617#2 34998617#3 34998617#4 34998617#5 34998617#6 34998617#7 34998617#8 34998617#9 34998617#10 34998617#11 34998617#12 34998617#13 34998617#14 34998617#15 34998617#16 34998617#17 95241154#0 95241154#1 -95241211#5 -95241211#4 -95241211#3 -95241211#2 -95241211#1 -95241211#0 -115993444 -19023679#3 -19023679#2 -19023679#1 -19023679#0 236667147#0 236667147#1 236667147#2 236667147#3 236667147#4 -115993510#3 -115993510#2 -115993510#1 -115993510#0 115993727#0 115993727#1 -115993687 115993577#0 115993577#1 115993666 115993441#0 115993441#1 464558883#14 464558883#15 464558883#16 464558883#17 464558883#18 464558883#19 464558883#20 115993656#0 115993656#1 115993656#2 115993656#3 115993656#4 115993656#5 115993656#6 115993414#0 115993414#1 115993414#2 115993414#3 115993414#4 115993414#5 -115993396#1 -115993396#0 115993421#0 115993421#1 -115993532#1 -115993532#0 99484724#0 99484724#1 115993717#0 115993717#1 115993717#2 115993717#3 115983243 115982706#0 98423430#13 98423430#14 98423430#15 98423430#16 98423430#17 98423430#18 98423430#19" id="route2"/>
	<flow begin="0" id="flow2" number="6000" period="0.1" route="route2" type="vtype0"/>
	<route edges="23732727#0 23732727#1 176606760#2 176606760#3 176606760#4 23732724#3 344258821 344258831#0 344258831#1 344258831#2 344258831#3 115993734#0 115993734#1 115993734#2 115993734#3 115993734#4 115993734#5 115993734#6 -115993719#3 -115993719#2 -115993719#1 -115993719#0 99484711#0 115993390#0 115993390#1 -115993754#1 115993754#1" id="route3"/>
	<flow begin="0" id="flow3" number="6000" period="0.1" route="route3" type="vtype0"/>
	<route edges="115993756#1 -95397492#3 -95397492#2 -95397492#1 -95397492#0 386286309#0 386286309#1 386286309#2 386286309#3 386286309#4 386286309#5 386286309#6 386286309#7 -117076074 -459037937#2 -174599109#4 -174599109#3 -174599109#2 174599108#0 174599113 -458842531#25 -458842531#24 134263078#0" id="route4"/>
	<flow begin="0" id="flow4" number="6000" period="0.1" route="route4" type="vtype0"/>
	<route edges="-238688421#0 238688421#0 238688421#1 238688421#2 238688421#3 238688421#4 33440536#14 33440536#15 -41381245#4 -41381245#3 -41381245#2 -41381245#1 -41381245#0 -41383664#6 -41383664#5 -41383664#4 -41383664#3 -41383664#2 -41383664#1 -41383664#0 -40214350#2 -99456051#1 -99456051#0 -115993520#3 115993730#2 99455593#1 115993568#1 115993568#2 115993568#3 -115993498#1 -115993498#0 -115993480" id="route5"/>
	<flow begin="0" id="flow5" number="6000" period="0.1" route="route5" type="vtype0"/>
	<route edges="115754193 -115754193 -115754233#2 -115754233#1 -115754233#0 -220421708#0 -115754214 115754203#2 115754203#3 386291074#23 386291074#24 386291074#25 -95241181#3 -95241181#2 -95241181#1 130443336#0 130443336#1 130453211#0 130453211#1" id="route6"/>
	<flow begin="0" id="flow6" number="6000" period="0.1" route="route6" type="vtype0"/>
	<route edges="237695701#2 237695701#3 174624359#0 174624359#1 115993448#0 115993448#1 115993448#2 115993448#3 115993448#4 115993448#5 115993677#0 115993677#1 115993677#2 -115993694#4 -115993694#3 -115993694#2 -115993694#1 -115993694#0 -115993620#3 -115993620#2 -115993620#1 130431059#0 130431059#1 130431059#2 130431059#3 115993738#16" id="route7"/>
	<flow begin="0" id="flow7" number="6000" period="0.1" route="route7" type="vtype0"/>
	<route edges="-115993611 115993611 115993422 -236667147#7 -236667147#6 -236667147#5 -236667147#4 -236667147#3 -236667147#2 -236667147#1 -236667147#0 -115993616 115993522#0 115993522#1 115993522#2 386286311#0 386286311#1 386286309#0 386286309#1 386286309#2 386286309#3 386286309#4 386286309#5 386286309#6 386286309#7 -117076074 -459037937#2 -174599109#4 -174599109#3 -174599109#2 174599108#0 174599113 -458842531#25 -458842531#24 134263078#0 53208163#0 53208163#1 53208163#2 53208163#3 53208163#4 53208163#5 53208163#6 458806712#0 -457918200#3 -457918200#2 -457918200#1 -457918200#0 -474838677#1 -474838677#0" id="route8"/>
	<flow begin="0" id="flow8" number="6000" period="0.1" route="route8" type="vtype0"/>
	<route edges="115993553#1 115993553#2 -115993647 237695701#11 237695701#12 237695701#13 -115993522#2 464558883#10 464558883#11 464558883#12 464558883#13 464558883#14 464558883#15 464558883#16 464558883#17 464558883#18 464558883#19 464558883#20 115993656#0 115993656#1 115993656#2 -115993594" id="route9"/>
	<flow begin="0" id="flow9" number="6000" period="0.1" route="route9" type="vtype0"/>
	<route edges="-503513071 -115993691#1 -115993691#0 115993603 115993507#0 115993507#1 115993507#2 115993507#3 -237695701#5 -237695701#4 174624359#0 174624359#1 115993448#0 115993448#1 115993448#2 115993448#3 115993448#4 115993448#5 115993677#0 115993677#1 115993677#2 -115993694#4 -115993694#3 -115993694#2 -115993694#1 -115993694#0 -115993620#3 -115993620#2 -115993620#1 130431059#0 130431059#1 130431059#2 130431059#3 115993738#16 115993738#17 115993738#18 115993738#19 115993738#20 -115993491#2 -115993491#1 -115993491#0 -115993454#3 -115993454#2 -115993454#1 -115993454#0 -115993414#9 -115993414#8 -115993414#7 -115993414#6 -115993414#5 -115993414#4 -115993414#3 -115993414#2 -115993414#1 -115993472 -115993509 -115993519 -115993631 -115993619#5 -115993619#4 -115993619#3 -115993619#2 -115993619#1 -115993619#0 176603044#1" id="route10"/>
	<flow begin="0" id="flow10" number="6000" period="0.1" route="route10" type="vtype0"/>
	<route edges="49681876#5 -49681876#5 -49681876#4 -49681876#3 -236667147#17 -236667147#16 -236667147#15 -236667147#14 -236667147#13 -236667147#12 -236667147#11 -236667147#10 -236667147#9 -236667147#8 -236667147#7 -236667147#6 -236667147#5 -236667147#4 -236667147#3 -236667147#2 -236667147#1 -236667147#0 -115993616 115993522#0 115993522#1 115993522#2 386286311#0 386286311#1 386286309#0 386286309#1 386286309#2 386286309#3 386286309#4 386286309#5 386286309#6 386286309#7 -117076074 -459037937#2 -174599109#4 -174599109#3 -174599109#2 174599108#0 174599113 -458842531#25 -458842531#24 -458842531#23 134263068#0 480120106 -480120106" id="route11"/>
	<flow begin="0" id="flow11" number="6000" period="0.1" route="route11" type="vtype0"/>
	<route edges="33080628#0 33080628#1 33080628#2 131714014#6 131714014#7 131714014#8 176603043#16 176603043#17 176603043#18 176603043#19 176603043#20 176603043#21 53542664#5 53542664#6 53542664#7 53542664#8 115993656#1 115993656#2 115993656#3 115993656#4 115993656#5 115993656#6 115993414#0 115993414#1 115993414#2 115993414#3 115993414#4 115993414#5 115993414#6 115993414#7 115993414#8 115993414#9 115993454#0 115993454#1 115993454#2 115993454#3 115993491#0 115993491#1 115993491#2 386286315 98714506#0 98714506#1 103756762#0 103756762#1 103756762#2 103756762#3 103756762#4 103756762#5 103756762#6 176603039#23 176603039#24 176603039#25 176603039#26 -103756759#6 -103756759#5 -103756759#4 -103756759#3 -103756759#2 -103756759#1 -103756759#0 -98423424#6 -98423424#5 -98423424#4 -98423424#3 -98423424#2 -98423424#1 -98423424#0 -560093360#3 -560093360#2 -560093360#1 -560093360#0 -32565547#13 -32565547#12 -32565547#11 -32565547#10" id="route12"/>
	<flow begin="0" id="flow12" number="6000" period="0.1" route="route12" type="vtype0"/>
	<route edges="537438900#9 537438900#10 537438900#11 236667147#0 236667147#1 236667147#2 236667147#3 236667147#4 236667147#5 236667147#6 236667147#7 236667147#8 236667147#9 236667147#10 236667147#11 236667147#12 236667147#13 236667147#14 236667147#15 236667147#16 236667147#17 236667147#18 236667147#19 236667147#20 236667147#21 101532872#0 101532872#1 101532872#2 160745250#0 -176596459#1 -176596459#0 115521525#0 -115521609#4 -115521609#3 -115521609#2 -115521431#1 -115521431#0 115521272#1 115521272#2 176603044#20 176603044#21 176603044#22 176603044#23 176603044#24 176603044#25 -23061359#1 -23061359#0 95241189 -213722100#12 -213722100#11 -213722100#10 -213722100#9 -213722100#8 41696498#7 41696498#8" id="route13"/>
	<flow begin="0" id="flow13" number="6000" period="0.1" route="route13" type="vtype0"/>
	<route edges="-95241140#4 95241140#4 372651738#0 372651738#1 372651738#2 372651738#3 372651738#4 372651737#1 372651737#2 -220407599#4 -220407599#3 -220407599#2 -220407599#1 -220407599#0 220407593 386291074#35 386291074#36 -63955083#2 -63955083#1 -63955083#0 27916531 458842531#0 458842531#1 -454045710#1 -454045710#0" id="route14"/>
	<flow begin="0" id="flow14" number="6000" period="0.1" route="route14" type="vtype0"/>
	<route edges="-176156914#0 176156914#0 176156914#1 176156914#2 115521331#4 23088260#5 23088260#6 23088260#7 23088260#8 23088260#9 23088260#10 23088260#11 23088260#12 23088260#13 23088260#14 23088260#15 -213722100#12 -213722100#11 -213722100#10 115521624#0 115521624#1 115521521#1" id="route15"/>
	<flow begin="0" id="flow15" number="6000" period="0.1" route="route15" type="vtype0"/>
	<route edges="-115993642#0 -236667127#3 -236667127#2 -236667127#1 -236667127#0 -95397492#16 -95397492#15 -95397492#14 -95397492#13 -95397492#12 -95397492#11 -95397492#10 -95397492#9 -95397492#8 -95397492#7 -95397492#6 41384609#0 41384609#1 41384609#2 41384609#3 41384609#4 41384609#5 41384609#6 41384609#7 350061396#0 350061396#1 350061396#2 350061396#3 350061396#4 386286309#6 386286309#7 -117076074 -459037937#2 -174599109#4 -174599109#3 -174599109#2 174599108#0 174599113 -458842531#25 -458842531#24 134263078#0 53208163#0 53208163#1 53208163#2 53208163#3 -53208163#3" id="route16"/>
	<flow begin="0" id="flow16" number="6000" period="0.1" route="route16" type="vtype0"/>
	<route edges="-115521317#0 115521317#0 115521317#1 115521317#2 222412310 -115521398#2 -115521603#1 -115521603#0 -115521483#1 -115521483#0 -115521563#3 -115521563#2 -115521563#1 -115521563#0 196045565#0 196045565#1 196045565#2 115521381#1 115521381#2 -115521540#3 -115521540#2 -115521540#1 -115521540#0 115521304#5 115521304#6 115521304#7" id="route17"/>
	<flow begin="0" id="flow17" number="6000" period="0.1" route="route17" type="vtype0"/>
	<route edges="-115993444 386286306#0 115993368#0 115993368#1 115993368#2 -91854837#2 231880452#0 231880452#1 231880452#2 -115993712#1 -115993712#0 -115993564#1 -115993564#0 -115993445 115993530 101532873#4 101532873#5 101532873#6 101532873#7 101532873#8 101532873#9 -91854860#4 -91854860#3 -91854860#2 -91854860#1 -91854860#0 130453211#4 386291074#28 386291074#29 -372651737#6 -372651737#5 -372651737#4 -372651737#3 -220407599#4 -220407599#3 52135923#0 52135923#1 52135923#2 52135923#3 52135923#4 344334428#13" id="route18"/>
	<flow begin="0" id="flow18" number="6000" period="0.1" route="route18" type="vtype0"/>
	<route edges="-115993630#4 115993630#4 464558883#5 464558883#6 464558883#7 464558883#8 464558883#9 -115993522#1 -115993522#0 115993616 236667147#0 236667147#1 236667147#2 236667147#3 236667147#4 236667147#5 236667147#6 -115993529#1 -115993529#0 -115993624#1 115993697#0 115993697#1 115993697#2 -130443344 49681877#3 -115993378 -292256645" id="route19"/>
	<flow begin="0" id="flow19" number="6000" period="0.1" route="route19" type="vtype0"/>
	<route edges="-131708441#6 131708441#6 176603043#14 176603043#15 176603043#16 176603043#17 176603043#18 176603043#19 176603043#20 176603043#21 53542664#5 53542664#6 -115993652#2 -115993652#1 -115993652#0 115993693 115993734#4 115993734#5 115993734#6 -115993719#3 -115993719#2 -115993719#1 -115993634#3 -115993634#2 -115993634#1" id="route20"/>
	<flow begin="0" id="flow20" number="6000" period="0.1" route="route20" type="vtype0"/>
	<route edges="-98714510#5 -98714506#8 -98714506#7 -98714506#6 -98714506#5 -98714506#4 -98714506#3 -98714506#2 -98714506#1 -98714506#0 -386286315 -115993491#2 -115993491#1 -115993491#0 -115993454#3 -115993454#2 -115993454#1 -115993454#0 -115993414#9 -115993414#8 -115993414#7 -115993414#6 -115993414#5 -115993414#4 -115993414#3 -115993734#10 -115993734#9 -115993734#8 -115993734#7 -115993734#6 -115993734#5 -115993734#4 -115993734#3 -115993734#2 -115993734#1 -115993734#0 -344258831#3 -344258831#2 -344258831#1 -344258831#0 -344258821 -23732724#3 -23732724#2 -23732724#1 214133117#2" id="route21"/>
	<flow begin="0" id="flow21" number="6000" period="0.1" route="route21" type="vtype0"/>
	<route edges="115521331#4 23088260#5 23088260#6 23088260#7 115521404#0 115521404#1 -23045374#5 -23045374#4 219862531#0 219862531#1 219862531#2 -115521648#0 -115521398#6 -115521398#5 -115521398#4 -115521398#3 -222412310 115521317#3 -115521467#1 115521345#1 -115521536#3 -115521285#1 -115521285#0 130453216#0 130453216#1 130453214 -236667147#21 -236667147#20 -236667147#19 -236667147#18 -236667147#17 -236667147#16 -236667147#15 -236667147#14 -236667147#13 -236667147#12 -236667147#11 -236667147#10 -236667147#9 -236667147#8 -236667147#7 -236667147#6 -236667147#5 -236667147#4 -236667147#3 -236667147#2 -236667147#1 -236667147#0 -115993616 115993522#0 115993522#1 115993522#2 -237695701#13 -237695701#12 -237695701#11 -237695701#10 -237695701#9 -237695701#8 -237695701#7 -237695701#6 -237695701#5 -237695701#4 -237695701#3 -237695701#2 -237695701#1 -237695701#0 -236667146#4 -236667146#3 -236667146#2 -236667146#1 -236667146#0 40214350#0 40214350#1 -99456051#1 -99456051#0 -115993520#3" id="route22"/>
	<flow begin="0" id="flow22" number="6000" period="0.1" route="route22" type="vtype0"/>
	<route edges="-91848853#3 91848853#3 91848853#4 91848853#5 91848853#6 91848853#7 231775751#2 -41385195#6 -41385195#5 -41385195#4 -41385195#3 204893433#2 204893433#3 204893433#4 99456052#7 -572350084#1 -572350084#0 -563364632#4 -563364632#3 -563364632#2 -563364632#1 -563364632#0 -115993680#8 -115993680#7 -115993680#6 -115993680#5 -115993680#4 -115993680#3 -115993680#2 -115993680#1 -115993680#0 314410760#3 171001760#1 171001760#2 171001760#3 171001760#4 171001760#5 171001760#6 171001760#7 171001760#8" id="route23"/>
	<flow begin="0" id="flow23" number="6000" period="0.1" route="route23" type="vtype0"/>
	<route edges="-115983011#1 115983011#1 115983011#2 115983011#3 115983011#4 115983011#5 115983011#6 115983011#7 115983011#8 115982649#0 115982649#1 130443361#0 130443361#1 -98423430#16 -98423430#15 -98423430#14 -98423430#13 -98423430#12 -98423430#11 -98423430#10 -98423430#9 -98423430#8 -98423430#7 -98423430#6 -98423430#5 -98423430#4 -98423430#3 -98423430#2 559133853#1 559133853#2 559133853#3 559133853#4 -386286314#6 -386286314#5 -386286314#4 -103756766#4 -103756766#3 -103756765#1 -103756765#0 -103756762#2 -103756741#1 103756764 103756754#4 103756754#5 98714506#5 98714506#6 98714506#7 98714506#8 98714506#9 98714506#10 98714506#11 98714506#12 98714506#13 98714506#14 98714506#15 98714506#16 98714506#17 233692507 -236667146#4 -236667146#3 -236667146#2 -236667146#1 -236667146#0 40214350#0 40214350#1 40214350#2 314410758 314410760#0 314410760#1 314410760#2 115993680#0 115993680#1 115993680#2 115993680#3 115993680#4 115993680#5 115993680#6 115993680#7 115993680#8 563364632#0 563364632#1 563364632#2 563364632#3 563364632#4 572350084#0 572350084#1 -99456052#7 -99456052#6 -99456052#5 -99456052#4 -99456052#3 -99456052#2 -99456052#1 -99456052#0 -91848887#3 -91848887#2 -91848887#1 -91848887#0 -91848867#2 -91848867#1 -91848867#0 91848867#0" id="route24"/>
	<flow begin="0" id="flow24" number="6000" period="0.1" route="route24" type="vtype0"/>
	<route edges="174624356#1 115993636#1 115993636#2 -115993722#4 -115993722#3 -115993722#2 -115993722#1 -115993722#0 -115993398#1 -115993398#0 115993641#0 115993641#1 115993641#2 115993497#0 115993497#1 -115993495 -115993587#3 -115993587#2 -115993587#1 -115993587#0 115993507#0 115993507#1 115993507#2 115993507#3 237695701#6 237695701#7 237695701#8 237695701#9 237695701#10 237695701#11 237695701#12 237695701#13 -115993522#2 -115993522#1 -115993522#0 115993616 236667147#0 236667147#1 236667147#2 236667147#3 236667147#4 236667147#5 236667147#6 236667147#7 236667147#8 236667147#9 236667147#10 236667147#11 236667147#12 236667147#13 236667147#14 115993664#0 115993664#1 115993664#2 115993386 -115993501#2 -115993501#1 -115993501#0" id="route25"/>
	<flow begin="0" id="flow25" number="6000" period="0.1" route="route25" type="vtype0"/>
	<route edges="-97668879#6 -97668879#5 -97668879#4 -97668879#3 -97668879#2 -97668879#1 -97668879#0 -130425773#2 130425770#0 130425770#1 23168887#9 23168887#10 23168887#11 -115993500#2 53542664#8 115993656#1 115993656#2 115993656#3 115993656#4 115993656#5 115993656#6 115993414#0 115993414#1 115993414#2 115993414#3 115993414#4 115993414#5 115993414#6 115993414#7 115993414#8 115993414#9 115993454#0 115993454#1 115993454#2 115993454#3 115993491#0 115993491#1 115993491#2 386286315 386286314#0 386286314#1 386286314#2 386286314#3 -103756766#4 -103756766#3 103756766#3" id="route26"/>
	<flow begin="0" id="flow26" number="6000" period="0.1" route="route26" type="vtype0"/>
	<route edges="-176156915#0 219862531#2 -115521648#0 -115521398#6 -115521398#5 -115521398#4 -115521398#3 -222412310 115521317#3 -115521467#1 115521345#1 -115521536#3 -115521285#1 -115521285#0 130453216#0 130453216#1 130453214 -236667147#21 -236667147#20 -236667147#19 -236667147#18 -236667147#17 -236667147#16 -236667147#15 -236667147#14 -236667147#13 -236667147#12 -236667147#11 -236667147#10 -236667147#9 -236667147#8 -236667147#7 -236667147#6 -236667147#5 -236667147#4 -236667147#3 -236667147#2 -236667147#1 -236667147#0 19023679#0 19023679#1 19023679#2 19023679#3 386286306#0 115993368#0 115993368#1 115993368#2 91854837#3 -130443295#24 -130443295#23 -130443295#22 -130443295#21 -130443295#20 -115993589#4 -115993589#3 -115993589#2 -115993589#1 -115993589#0 115993478#4 -115993512#1 -115993512#0 -130443295#15 -130443295#14 -130443295#13 -130443295#12 -130443295#11 -130443295#10 -130443295#9 -130443295#8 -130443295#7 -130443295#6 -91854882#13" id="route27"/>
	<flow begin="0" id="flow27" number="6000" period="0.1" route="route27" type="vtype0"/>
	<route edges="209961415#0 115983221#1 -130443349#1 -130443349#0 -130443365 214091117#1 209961413#2 209961416#3 214133117#0 214133117#1 23732724#1 23732724#2 23732724#3 344258821 344258831#0 344258831#1 344258831#2 344258831#3 115993734#0 115993734#1 115993734#2 115993734#3 115993734#4 115993734#5 115993734#6 115993719#4 115993719#5 -115993631 115993595 115993500#0 115993500#1 115993500#2 -23168887#11 -23168887#10 -23168887#9 -130425770#1 -130425770#0 130425773#2 97668879#0 97668879#1 97668879#2 97668879#3 97668879#4 97668879#5 97668879#6 -61133529#7 -61133529#6 -61133529#5 -61133529#4 -61133529#3 -61133529#2 -61133529#1 -61133529#0 236667147#21 101532872#0 101532872#1 101532872#2 160745250#0 -176596459#1 -176596459#0 115521525#0 115521525#1 115521525#2 115521525#3 115521285#1 115521536#3 -115521345#1 115521467#1 -115521317#3 222412310 -115521398#2 -115521603#1 -115521603#0 -115521483#1 -115521483#0 115521563#4 115521563#5 -115521625#5 -220432049#3 -220432049#2 -220432049#1 -220432049#0 23061358#29 23061358#30 23061358#31 -115521537#0" id="route28"/>
	<flow begin="0" id="flow28" number="6000" period="0.1" route="route28" type="vtype0"/>
	<route edges="236667147#2 236667147#3 236667147#4 236667147#5 236667147#6 236667147#7 236667147#8 236667147#9 236667147#10 236667147#11 236667147#12 236667147#13 236667147#14 236667147#15 236667147#16 236667147#17 236667147#18 236667147#19 236667147#20 61133529#0 61133529#1 61133529#2 61133529#3 61133529#4 61133529#5 61133529#6 61133529#7 -97668879#6 -97668879#5 -97668879#4 -97668879#3 97668879#3" id="route29"/>
	<flow begin="0" id="flow29" number="6000" period="0.1" route="route29" type="vtype0"/>
	<route edges="-115993738#4 -115993738#3 -115993738#2 -115993738#1 -115993738#0 464558883#11 464558883#12 464558883#13 464558883#14 464558883#15 464558883#16 464558883#17 464558883#18 464558883#19 464558883#20 115993656#0 115993656#1 115993656#2 115993656#3 115993656#4 115993656#5 115993656#6 115993414#0 115993414#1 115993414#2 115993414#3 115993414#4 115993414#5 -115993396#1 -115993396#0 115993421#0 115993421#1 -115993532#1 -115993532#0 99484724#0 99484724#1 115993717#0 115993717#1 115993717#2 115993717#3 115983243 115982706#0 98423430#13 98423430#14 98423430#15 98423430#16 -130443361#1 -130443361#0 -115982649#1 -115982649#0 -115983011#8 -115983011#7 -115983011#6 -115983011#5 -115983011#4 -115983011#3 -115983011#2 -115983011#1 -115983011#0" id="route30"/>
	<flow begin="0" id="flow30" number="6000" period="0.1" route="route30" type="vtype0"/>
	<route edges="46988450#2 46988450#3 46988450#4 -46988451 344258821 344258831#0 344258831#1 344258831#2 344258831#3 115993734#0 115993734#1 115993734#2 115993734#3 115993734#4 115993734#5 115993734#6 115993719#4 115993719#5 -115993631 115993595 115993500#0 115993500#1 115993500#2 -23168887#11 -23168887#10 -23168887#9 -130425770#1 -131931106#5 -131931106#4 -131931106#3 -131931105#1 -131931105#0 -130425773#0 -49681876#13 -49681876#12 -49681876#11 -49681876#10 -49681876#9 -49681876#8 -49681876#7 -49681876#6 -49681876#5 -49681876#4 -49681876#3 -236667147#17 -236667147#16 -236667147#15 -236667147#14 -236667147#13 -236667147#12 -236667147#11 -236667147#10 -236667147#9 -236667147#8 -236667147#7 -236667147#6 -236667147#5 -236667147#4 -236667147#3 -236667147#2 -236667147#1 -236667147#0 19023679#0 19023679#1 19023679#2 19023679#3 386286306#0 115993368#0 115993368#1 115993368#2 91854837#3 -130443295#24 -130443295#23 -130443295#22 -130443295#21 -130443295#20 -115993589#4 -115993589#3 -115993589#2 -115993589#1 -115993589#0 115993478#4 -115993512#1 -115993512#0 -130443295#15 -130443295#14 -130443295#13 -130443295#12 -130443295#11 -130443295#10 -130443295#9 -130443295#8 -130443295#7 -130443295#6 -130443295#5 -130443295#4 -130443295#3 -130443295#2 91854832#2 91854832#3 91854832#4 91854832#5 91854832#6 458842527#0 458842527#1 458842527#2 -91854881#2 -91854881#1 -91854818#4 -91854818#3 -91854818#2 -91854818#1 -91854818#0 458842528#5" id="route31"/>
	<flow begin="0" id="flow31" number="6000" period="0.1" route="route31" type="vtype0"/>
	<route edges="-386286298#7 -386286298#6 -386286298#5 115993407 -115993731#1 -115993731#0 -115993498#0 -115993480 -115993417 236667146#1 236667146#2 236667146#3 236667146#4 237695701#0 237695701#1 237695701#2 237695701#3 237695701#4 237695701#5 237695701#6 237695701#7 237695701#8 237695701#9 237695701#10 237695701#11 237695701#12 237695701#13 -115993522#2 -115993522#1 -115993522#0 115993616 236667147#0 236667147#1 236667147#2 236667147#3 236667147#4 236667147#5 236667147#6 236667147#7 236667147#8 236667147#9 236667147#10 236667147#11 236667147#12 236667147#13 236667147#14 236667147#15 236667147#16 236667147#17 236667147#18 236667147#19 236667147#20 236667147#21 101532872#0 101532872#1 101532872#2 160745250#0 160745250#1 160745250#2 160745250#3 160745250#4 160745250#5 160745250#6 115521477#0 -131708440#1" id="route32"/>
	<flow begin="0" id="flow32" number="6000" period="0.1" route="route32" type="vtype0"/>
	<route edges="130453197#0 476633497 23061358#4 23061358#5 23061358#6 23061358#7 23061358#8 23061358#9 23061358#10 23061358#11 23061358#12 23061358#13 23061358#14 23061358#15 23061358#16 23061358#17 23061358#18 23061358#19 23061358#20 115521304#1 115521304#2 115521304#3 115521304#4 115521304#5 115521304#6 115521304#7 -115521472#5 115521472#5" id="route33"/>
	<flow begin="0" id="flow33" number="6000" period="0.1" route="route33" type="vtype0"/>
	<route edges="-115993738#0 115993738#0 53542664#20 53542664#21 -237695701#13 -237695701#12 -237695701#11 -237695701#10 -237695701#9 -237695701#8 -237695701#7 -174624365#1 174624369" id="route34"/>
	<flow begin="0" id="flow34" number="6000" period="0.1" route="route34" type="vtype0"/>
	<route edges="-131708435#2 131708435#2 -236667147#19 -236667147#18 -236667147#17 -236667147#16 -236667147#15 -236667147#14 -236667147#13 -236667147#12 -236667147#11 -236667147#10 -236667147#9 -236667147#8 -236667147#7 -236667147#6 -236667147#5 -236667147#4 -236667147#3 -236667147#2 -236667147#1 -236667147#0 -115993616 115993522#0 115993522#1 115993522#2 -237695701#13 -237695701#12 -237695701#11 -237695701#10 -174624362#2 -174624362#1 -174624362#0 -174624379#2 -115993430#4 -115993430#3 -115993430#2 292256647 184292844#5 184292844#6 184292844#7 184292844#8 184292844#9 184292844#10 184292844#11 95397492#6 95397492#7" id="route35"/>
	<flow begin="0" id="flow35" number="6000" period="0.1" route="route35" type="vtype0"/>
	<route edges="386291074#31 -386291074#31 -386291074#30 -372651737#6 -372651737#5 -95241160#2 -95241160#1 -95241160#0 -386291074#25 -386291074#24 -386291074#23 -115754203#3 -115754203#2 -115754203#1 -115754203#0 -386291074#21 -386291074#20 -386291074#19 -386291074#18 -386291074#17 -386291074#16 -386291074#15 -386291074#14 -386291074#13 -386291074#12 -386291074#11 -386291074#10 -386291074#9 -386291074#8 -386291074#7 -386291074#6 -386291074#5 -386291074#4 -386291074#3 -386291074#2 -386291074#1 -386291074#0 -41696498#36 -41696498#35 -41696498#34 -41696498#33 -41696498#32 -41696498#31 -41696498#30 -41696498#29 -41696498#28 -41696498#27 -41696498#26 -41696498#25 -41696498#24 -41696498#23 -41696498#22 -41696498#21 -95241212#5 -95241212#4 -95241212#3 -95241212#2 -95241212#1 -200407794#1 200407794#1" id="route36"/>
	<flow begin="0" id="flow36" number="6000" period="0.1" route="route36" type="vtype0"/>
	<route edges="-41385195#3 204893433#2 204893433#3 204893433#4 99456052#7 -572350084#1 -572350084#0 -563364632#4 -563364632#3 -563364632#2 -563364632#1 -563364632#0 -115993680#8 -115993680#7 -115993680#6 -115993680#5 -115993680#4 -115993680#3 -115993680#2 -115993680#1 -115993680#0 -314410760#2 -314410760#1 -314410760#0 -314410758 -40214350#2 -40214350#1 -40214350#0 236667146#0 236667146#1 236667146#2 236667146#3 236667146#4 -233692507 -98714506#17 -98714506#16 -98714506#15 -98714506#14 -98714506#13 -98714506#12 -98714506#11 -98714506#10 -98714506#9 -98714506#8 -98714506#7 -98714506#6 -98714506#5 -98714506#4 -98714506#3 -98714506#2 -98714506#1 -98714506#0 -386286315 -115993491#2 -115993491#1 -115993491#0 -115993454#3 -115993454#2 -115993454#1 -115993454#0 -115993414#9 -115993414#8 -115993414#7 -115993414#6 -115993414#5 -115993414#4 -115993414#3 -115993734#10 -115993734#9 -115993734#8 -115993734#7 -115993734#6 -115993734#5 -115993734#4 -115993734#3 -115993734#2 -115993734#1 -115993734#0 -344258831#3 -344258831#2 -344258831#1 -344258831#0 -344258821 -23732724#3 -23732724#2 -23732724#1 -23732724#0 209961417#0 209961417#1 209962863#0 -209962863#0" id="route37"/>
	<flow begin="0" id="flow37" number="6000" period="0.1" route="route37" type="vtype0"/>
	<route edges="386291074#17 386291074#18 386291074#19 386291074#20 386291074#21 115754203#0 115754203#1 115754203#2 115754203#3 386291074#23 386291074#24 386291074#25 -95241181#3 -95241181#2 -95241181#1 130443336#0 130443336#1 130443336#2 130443336#3 130443336#4 130443336#5 130443374 101532873#6 91854832#0 91854832#1 91854832#2 91854832#3 -196045573#1 196045573#1" id="route38"/>
	<flow begin="0" id="flow38" number="6000" period="0.1" route="route38" type="vtype0"/>
	<route edges="115982557#8 -115993404#2 -115993350#2 -115993350#1 -115993350#0 -115993494#2 -115993494#1 -115993494#0 209962860#4 209962860#5 209962860#6 176603039#4 176603039#5 -99484711#2 -99484711#1 115993390#0 115993390#1 115993536#0 115993536#1 115993536#2 -115993421#1 -115993421#0 115993396#0 115993396#1 115993414#6 115993414#7 115993414#8 115993414#9 115993454#0 115993454#1 115993454#2 115993454#3 115993491#0 115993491#1 115993491#2 386286315 98714506#0 98714506#1 98714506#2 98714506#3 98714506#4 98714506#5 98714506#6 98714506#7 98714506#8 98714506#9 98714506#10 98714506#11 98714506#12 98714506#13 98714506#14 98714506#15 98714506#16 98714506#17 233692507 -236667146#4 -236667146#3 -236667146#2 -236667146#1 -236667146#0 40214350#0 40214350#1 40214350#2 314410758 314410760#0 314410760#1 314410760#2 115993680#0 115993680#1 115993680#2 115993680#3 115993680#4 115993680#5 115993680#6 115993680#7 115993680#8 563364632#0 563364632#1 563364632#2 563364632#3 563364632#4 572350084#0 572350084#1 -99456052#7 -99456052#6 -99456052#5" id="route39"/>
	<flow begin="0" id="flow39" number="6000" period="0.1" route="route39" type="vtype0"/>