<?xml version="1.0" encoding="UTF-8"?>
<!-- generated on 2018-12-03 20:14:25.672845 by $Id$
  options: -n bunkyo-ku.net.xml <doubleminus>flow=50 <doubleminus>route-file=bunkyo-ku_un_fixed.rou.xml
-->
<routes xmlns:xsi="http://www.w3.org/2001/XMLSchema-instance" xsi:noNamespaceSchemaLocation="http://sumo.dlr.de/xsd/routes_file.xsd">
    <flow id="0" begin="0" end="3600" period="50" from="40189286" to="-115993481#5"/>
    <flow id="1" begin="0" end="3600" period="50" from="115521586#2" to="-386291074#13"/>
    <flow id="2" begin="0" end="3600" period="50" from="33080628#0" to="-32565547#10"/>
    <flow id="3" begin="0" end="3600" period="50" from="-91848853#3" to="171001760#8"/>
    <flow id="4" begin="0" end="3600" period="50" from="-115993738#0" to="174624369"/>
    <flow id="5" begin="0" end="3600" period="50" from="-454047557#0" to="386286314#6"/>
    <flow id="6" begin="0" end="3600" period="50" from="213722100#9" to="53208163#8"/>
    <flow id="7" begin="0" end="3600" period="50" from="-195680590" to="23061358#16"/>
    <flow id="8" begin="0" end="3600" period="50" from="115993712#0" to="-130425738#6"/>
    <flow id="9" begin="0" end="3600" period="50" from="-559133853#1" to="23168887#8"/>
    <flow id="10" begin="0" end="3600" period="50" from="130443369#7" to="98423430#19"/>
    <flow id="11" begin="0" end="3600" period="50" from="23732727#0" to="115993754#1"/>
    <flow id="12" begin="0" end="3600" period="50" from="115993756#1" to="134263078#0"/>
    <flow id="13" begin="0" end="3600" period="50" from="-238688421#0" to="-115993480"/>
    <flow id="14" begin="0" end="3600" period="50" from="115754193" to="130453211#1"/>
    <flow id="15" begin="0" end="3600" period="50" from="237695701#2" to="115993738#16"/>
    <flow id="16" begin="0" end="3600" period="50" from="-115993611" to="-474838677#0"/>
    <flow id="17" begin="0" end="3600" period="50" from="115993553#1" to="-115993594"/>
    <flow id="18" begin="0" end="3600" period="50" from="-503513071" to="176603044#1"/>
    <flow id="19" begin="0" end="3600" period="50" from="49681876#5" to="-480120106"/>
    <flow id="20" begin="0" end="3600" period="50" from="537438900#9" to="41696498#8"/>
    <flow id="21" begin="0" end="3600" period="50" from="-95241140#4" to="-454045710#0"/>
    <flow id="22" begin="0" end="3600" period="50" from="-176156914#0" to="115521521#1"/>
    <flow id="23" begin="0" end="3600" period="50" from="-115993642#0" to="-53208163#3"/>
    <flow id="24" begin="0" end="3600" period="50" from="-115521317#0" to="115521304#7"/>
    <flow id="25" begin="0" end="3600" period="50" from="-115993444" to="344334428#13"/>
    <flow id="26" begin="0" end="3600" period="50" from="-115993630#4" to="-292256645"/>
    <flow id="27" begin="0" end="3600" period="50" from="-131708441#6" to="-115993634#1"/>
    <flow id="28" begin="0" end="3600" period="50" from="-98714510#5" to="214133117#2"/>
    <flow id="29" begin="0" end="3600" period="50" from="115521331#4" to="-115993520#3"/>
    <flow id="30" begin="0" end="3600" period="50" from="-115983011#1" to="91848867#0"/>
    <flow id="31" begin="0" end="3600" period="50" from="174624356#1" to="-115993501#0"/>
    <flow id="32" begin="0" end="3600" period="50" from="-97668879#6" to="103756766#3"/>
    <flow id="33" begin="0" end="3600" period="50" from="-176156915#0" to="-91854882#13"/>
    <flow id="34" begin="0" end="3600" period="50" from="209961415#0" to="-115521537#0"/>
    <flow id="35" begin="0" end="3600" period="50" from="236667147#2" to="97668879#3"/>
    <flow id="36" begin="0" end="3600" period="50" from="-115993738#4" to="-115983011#0"/>
    <flow id="37" begin="0" end="3600" period="50" from="46988450#2" to="458842528#5"/>
    <flow id="38" begin="0" end="3600" period="50" from="-386286298#7" to="-131708440#1"/>
    <flow id="39" begin="0" end="3600" period="50" from="130453197#0" to="115521472#5"/>
    <flow id="40" begin="0" end="3600" period="50" from="-131708435#2" to="95397492#7"/>
    <flow id="41" begin="0" end="3600" period="50" from="386291074#31" to="200407794#1"/>
    <flow id="42" begin="0" end="3600" period="50" from="-41385195#3" to="-209962863#0"/>
    <flow id="43" begin="0" end="3600" period="50" from="386291074#17" to="196045573#1"/>
    <flow id="44" begin="0" end="3600" period="50" from="115982557#8" to="-99456052#5"/>
    <flow id="45" begin="0" end="3600" period="50" from="91848850#2" to="350061396#2"/>
    <flow id="46" begin="0" end="3600" period="50" from="-131930067#1" to="-63954730#4"/>
    <flow id="47" begin="0" end="3600" period="50" from="-386291074#3" to="53542664#11"/>
    <flow id="48" begin="0" end="3600" period="50" from="-454040245" to="-115993613#0"/>
    <flow id="49" begin="0" end="3600" period="50" from="-537145247#1" to="343881537#1"/>
</routes>
