<?xml version="1.0" ?>
<routes>
	<vType accel="2.6" color="1,1,0" decel="4.5" id="vtype0" length="2.5" maxSpeed="14" minGap="2.5" sigma="0.5"/>
	<route edges="91848875#0 91848875#1 91848853#0 91848853#1 91848853#2 91848853#3 91848853#4 91848853#5 91848853#6 91848853#7 -231775751#1 -231775751#0 -459618759#3 -459618759#2 -459618759#1 -459618759#0 -459621164#1 -459621164#0 -459618758#1 -459618758#0 -364080011#5 -364080011#4 -364080011#3 -364080011#2 -364080011#1 -364080011#0 -169064731 -22720674#1 -22720674#0 -458842531#28 -458842531#27 -458842531#26 -458842531#25 -458842531#24 -458842531#23 91854822#0 91854878#0 91854878#1 91854878#2 -458842543" id="route0"/>
	<flow begin="0" period="10" id="flow0" number="60" route="route0" type="vtype0"/>
</routes>
