<additional xmlns:xsi="http://www.w3.org/2001/XMLSchema-instance" xsi:noNamespaceSchemaLocation="http://sumo.dlr.de/xsd/additional_file.xsd">
    <location convBoundary="0.00,0.00,10765.68,15146.96" netOffset="-381146.37,-3945532.35" origBoundary="139.686767,35.647002,139.804523,35.783414" projParameter="+proj=utm +zone=54 +ellps=WGS84 +datum=WGS84 +units=m +no_defs" />

    <poly color="194,194,130" fill="1" id="115754216" layer="-3.00" shape="5324.59,7302.93 5353.09,7307.64 5350.55,7327.80 5360.60,7329.48 5346.78,7367.13 5332.82,7367.96 5328.05,7380.96 5312.08,7378.87 5324.59,7302.93" type="landuse" />
    <poly color="194,194,130" fill="1" id="115993356" layer="-3.00" shape="6088.84,8572.14 6091.33,8554.71 6092.47,8554.78 6094.18,8539.59 6099.16,8537.80 6110.49,8568.27 6101.95,8569.60 6101.74,8572.51 6088.84,8572.14" type="landuse" />
    <poly color="194,194,130" fill="1" id="115993433" layer="-3.00" shape="6328.96,8353.51 6386.43,8265.51 6398.29,8245.11 6438.31,8267.25 6432.89,8276.79 6399.31,8258.16 6386.34,8280.65 6388.46,8282.00 6339.53,8359.42 6328.96,8353.51" type="landuse" />
    <poly color="194,194,130" fill="1" id="115993459" layer="-3.00" shape="5974.11,8400.02 5976.28,8373.48 5999.96,8377.21 5994.30,8403.13 5974.11,8400.02" type="landuse" />
    <poly color="194,194,130" fill="1" id="115993555" layer="-3.00" shape="5889.72,8460.65 5913.43,8399.35 5934.30,8407.03 5929.99,8419.72 5926.10,8418.52 5909.85,8469.59 5889.72,8460.65" type="landuse" />
    <poly color="194,194,130" fill="1" id="115993599" layer="-3.00" shape="6387.78,8634.26 6392.40,8636.41 6412.73,8665.81 6405.06,8680.65 6392.59,8674.06 6373.82,8660.41 6387.78,8634.26" type="landuse" />
    <poly color="255,230,230" fill="1" id="122948716" layer="-1.00" shape="6638.93,7469.63 6652.28,7401.45 6631.86,7397.49 6618.42,7466.10 6622.28,7466.85 6621.70,7469.86 6629.27,7471.33 6629.94,7467.88 6638.93,7469.63" type="building" />
    <poly color="255,230,230" fill="1" id="122948719" layer="-1.00" shape="6825.62,7513.87 6828.76,7498.34 6858.83,7504.38 6855.69,7519.90 6825.62,7513.87" type="building" />
    <poly color="255,230,230" fill="1" id="122948721" layer="-1.00" shape="6785.83,7404.08 6786.88,7398.97 6805.87,7402.84 6804.82,7407.94 6785.83,7404.08" type="building" />
    <poly color="255,230,230" fill="1" id="122948723" layer="-1.00" shape="6743.28,7559.17 6744.87,7551.30 6794.01,7561.12 6792.30,7568.09 6743.28,7559.17" type="building" />
    <poly color="255,230,230" fill="1" id="122948731" layer="-1.00" shape="6628.12,7537.19 6629.55,7529.36 6735.58,7549.94 6734.17,7557.61 6628.12,7537.19" type="building" />
    <poly color="255,230,230" fill="1" id="122948735" layer="-1.00" shape="6820.11,7541.56 6823.61,7525.73 6852.92,7532.21 6849.07,7547.33 6820.11,7541.56" type="building" />
    <poly color="255,230,230" fill="1" id="122948736" layer="-1.00" shape="6687.64,7329.87 6689.53,7320.77 6692.05,7321.29 6690.74,7327.60 6696.68,7328.83 6697.98,7322.55 6700.45,7323.07 6698.57,7332.12 6687.64,7329.87" type="building" />
    <poly color="255,230,230" fill="1" id="122948737" layer="-1.00" shape="6721.56,7514.35 6725.67,7494.81 6630.56,7475.00 6628.83,7483.24 6620.52,7481.52 6618.14,7492.82 6721.56,7514.35" type="building" />
    <poly color="255,230,230" fill="1" id="122948744" layer="-1.00" shape="6775.52,7427.64 6776.50,7423.01 6796.91,7427.30 6795.93,7431.93 6775.52,7427.64" type="building" />
    <poly color="255,230,230" fill="1" id="122948748" layer="-1.00" shape="6797.11,7569.46 6798.86,7561.23 6831.53,7568.72 6830.52,7575.19 6817.23,7573.78 6797.11,7569.46" type="building" />
    <poly color="255,230,230" fill="1" id="122948752" layer="-1.00" shape="6801.67,7537.35 6723.66,7520.49 6722.98,7523.63 6715.80,7522.08 6713.34,7533.35 6798.53,7551.74 6801.67,7537.35" type="building" />
    <poly color="255,230,230" fill="1" id="122948755" layer="-1.00" shape="6804.91,7554.91 6820.28,7486.50 6871.48,7497.90 6864.22,7530.24 6860.95,7529.52 6854.83,7556.74 6849.32,7555.53 6848.68,7558.37 6833.92,7561.37 6804.91,7554.91" type="building" />
    <poly color="255,230,230" fill="1" id="122948756" layer="-1.00" shape="6912.12,7455.87 6916.98,7432.75 6936.00,7436.72 6933.98,7446.36 6917.85,7457.06 6912.12,7455.87" type="man_made" />
    <poly color="207,245,201" fill="1" id="130425780" layer="-2.00" shape="5881.26,9443.63 5880.19,9433.96 5891.72,9417.76 5896.57,9417.13 5946.08,9455.15 5946.30,9457.71 5930.40,9474.91 5925.07,9475.36 5881.26,9443.63" type="tourism" />
    <poly color="255,230,230" fill="1" id="130431078" layer="-1.00" shape="6323.46,9177.78 6338.59,9118.86 6452.60,9147.86 6437.48,9206.77 6323.46,9177.78" type="building" />
    <poly color="255,230,230" fill="1" id="130431080" layer="-1.00" shape="6448.19,9204.42 6474.69,9210.98 6476.35,9204.34 6449.86,9197.78 6448.19,9204.42" type="building" />
    <poly color="255,230,230" fill="1" id="130431081" layer="-1.00" shape="6311.80,9176.13 6279.09,9167.82 6294.55,9107.52 6327.26,9115.83 6311.80,9176.13" type="building" />
    <poly color="255,230,230" fill="1" id="130431083" layer="-1.00" shape="6343.45,9222.68 6422.15,9242.43 6427.06,9223.11 6372.02,9209.29 6371.72,9210.48 6364.08,9208.57 6364.41,9207.23 6348.39,9203.21 6343.45,9222.68" type="building" />
    <poly color="255,230,230" fill="1" id="131706843" layer="-1.00" shape="5447.93,9173.57 5484.79,9202.53 5500.89,9182.24 5464.02,9153.27 5447.93,9173.57" type="building" />
    <poly color="255,230,230" fill="1" id="131706844" layer="-1.00" shape="5634.88,9327.76 5657.03,9345.38 5705.15,9284.90 5681.90,9268.41 5634.88,9327.76" type="building" />
    <poly color="255,230,230" fill="1" id="131706845" layer="-1.00" shape="5597.75,9233.21 5628.73,9257.25 5666.58,9208.92 5635.60,9184.88 5628.29,9194.22 5597.75,9233.21" type="building" />
    <poly color="255,230,230" fill="1" id="131706847" layer="-1.00" shape="5488.67,9154.93 5485.33,9128.34 5488.56,9127.94 5487.87,9122.34 5514.21,9119.06 5514.96,9124.98 5518.49,9124.54 5521.78,9150.80 5488.67,9154.93" type="building" />
    <poly color="255,230,230" fill="1" id="131708443" layer="-1.00" shape="5612.66,9260.79 5606.51,9255.90 5613.78,9246.81 5619.94,9251.71 5612.66,9260.79" type="building" />
    <poly color="207,245,201" fill="1" id="131708444" layer="-2.00" shape="5495.66,9228.51 5525.97,9190.95 5532.79,9182.48 5577.34,9218.10 5575.10,9220.88 5550.54,9251.34 5540.22,9264.13 5504.09,9235.25 5495.66,9228.51" type="leisure" />
    <poly color="255,230,230" fill="1" id="131722703" layer="-1.00" shape="5719.29,9287.87 5734.12,9267.98 5743.94,9275.23 5729.11,9295.13 5719.29,9287.87" type="building" />
    <poly color="255,230,230" fill="1" id="131722704" layer="-1.00" shape="5748.87,9287.69 5757.30,9276.24 5801.27,9308.38 5792.84,9319.82 5748.87,9287.69" type="building" />
    <poly color="255,230,230" fill="1" id="131722727" layer="-1.00" shape="5774.79,9248.86 5794.50,9264.03 5786.80,9273.94 5784.51,9272.17 5779.45,9278.69 5773.27,9273.94 5774.09,9272.88 5762.85,9264.24 5774.79,9248.86" type="building" />
    <poly color="255,230,230" fill="1" id="131722728" layer="-1.00" shape="5778.90,9336.75 5785.76,9327.86 5796.06,9335.72 5789.21,9344.62 5778.90,9336.75" type="building" />
    <poly color="255,230,230" fill="1" id="131722729" layer="-1.00" shape="5742.05,9310.03 5748.17,9301.57 5770.31,9317.44 5764.19,9325.90 5742.05,9310.03" type="building" />
    <poly color="207,245,201" fill="1" id="131724738" layer="-2.00" shape="5463.94,8973.81 5479.83,8988.07 5505.63,8959.46 5489.10,8945.34 5463.94,8973.81" type="tourism" />
    <poly color="237,199,199" fill="1" id="131724740" layer="-1.00" shape="5474.38,9076.58 5512.09,9029.55 5550.60,9059.44 5512.00,9106.47 5474.38,9076.58" type="amenity" />
    <poly color="237,199,199" fill="1" id="131724741" layer="-1.00" shape="5473.49,9075.89 5406.80,9024.29 5447.49,8974.28 5511.45,9029.13 5473.49,9075.89" type="amenity" />
    <poly color="207,245,201" fill="1" id="131931101" layer="-2.00" shape="5610.23,9456.45 5630.86,9428.60 5557.40,9373.42 5527.73,9411.02 5548.49,9411.58 5592.34,9443.46 5610.23,9456.45" type="tourism" />
    <poly color="207,245,201" fill="1" id="131931102" layer="-2.00" shape="5413.55,9352.92 5461.64,9298.13 5557.40,9373.42 5527.73,9411.02 5488.29,9410.18 5454.81,9382.23 5432.61,9364.20 5430.41,9366.83 5413.55,9352.92" type="leisure" />
    <poly color="79,230,125" fill="1" id="131931102#1" layer="-2.00" shape="5413.55,9352.92 5461.64,9298.13 5557.40,9373.42 5527.73,9411.02 5488.29,9410.18 5454.81,9382.23 5432.61,9364.20 5430.41,9366.83 5413.55,9352.92" type="sport" />
    <poly color="255,230,230" fill="1" id="134445377" layer="-1.00" shape="6537.56,7093.69 6537.74,7105.63 6542.96,7105.55 6542.78,7093.60 6537.56,7093.69" type="building" />
    <poly color="255,230,230" fill="1" id="134445378" layer="-1.00" shape="6547.48,7105.95 6537.55,7105.96 6537.57,7116.37 6547.51,7116.35 6547.48,7105.95" type="building" />
    <poly color="255,230,230" fill="1" id="134445379" layer="-1.00" shape="6548.38,7093.60 6543.07,7093.67 6543.22,7105.50 6548.53,7105.43 6548.38,7093.60" type="building" />
    <poly color="255,230,230" fill="1" id="134445380" layer="-1.00" shape="6537.83,7117.16 6537.90,7124.86 6538.82,7125.77 6543.42,7125.73 6543.36,7117.11 6537.83,7117.16" type="building" />
    <poly color="255,230,230" fill="1" id="134445381" layer="-1.00" shape="6548.72,7116.90 6543.76,7116.99 6543.79,7126.27 6547.68,7126.26 6548.69,7125.32 6548.72,7116.90" type="building" />
    <poly color="255,230,230" fill="1" id="134445383" layer="-1.00" shape="6529.53,7132.30 6528.04,7161.39 6538.17,7161.91 6539.28,7141.64 6540.21,7141.63 6540.57,7132.79 6529.53,7132.30" type="building" />
    <poly color="207,245,201" fill="1" id="134459700" layer="-2.00" shape="6959.41,7121.26 7034.91,7117.99 7040.16,7238.45 6960.05,7241.92 6959.34,7225.56 6963.95,7225.36 6959.41,7121.26" type="leisure" />
    <poly color="79,230,125" fill="1" id="134459700#1" layer="-2.00" shape="6959.41,7121.26 7034.91,7117.99 7040.16,7238.45 6960.05,7241.92 6959.34,7225.56 6963.95,7225.36 6959.41,7121.26" type="sport" />
    <poly color="51,128,255" fill="1" id="135036135" layer="-1.00" shape="6904.10,9368.00 6894.92,9366.53 6871.18,9370.99 6864.23,9375.52 6853.75,9393.84 6843.88,9418.35 6838.53,9442.28" type="building" />
    <poly color="51,128,255" fill="1" id="135036136" layer="-1.00" shape="6920.17,9353.54 6927.00,9354.76 6939.25,9355.55 6941.27,9355.69 6977.57,9337.97 6982.97,9334.47 7002.60,9321.75 7029.40,9302.90 7062.40,9278.11 7077.83,9276.08" type="building" />
    <poly color="255,230,230" fill="1" id="137625390" layer="-1.00" shape="7093.37,7281.48 7132.23,7279.75 7131.63,7266.41 7092.77,7268.14 7093.37,7281.48" type="building" />
    <poly color="255,230,230" fill="1" id="137625391" layer="-1.00" shape="7080.21,7313.64 7080.83,7328.86 7120.73,7327.22 7120.09,7312.01 7080.21,7313.64" type="building" />
    <poly color="255,230,230" fill="1" id="137625392" layer="-1.00" shape="7305.16,7168.58 7305.67,7181.90 7327.49,7181.07 7327.29,7176.01 7340.67,7175.50 7340.36,7167.24 7305.16,7168.58" type="building" />
    <poly color="255,230,230" fill="1" id="137625393" layer="-1.00" shape="6939.69,7392.02 6962.82,7396.97 6964.07,7391.03 6964.72,7388.02 6972.70,7350.97 6973.32,7348.06 6974.77,7341.48 6951.64,7336.55 6939.69,7392.02" type="building" />
    <poly color="255,230,230" fill="1" id="137625408" layer="-1.00" shape="7139.05,7337.55 7138.00,7311.03 7122.43,7311.64 7123.49,7338.17 7139.05,7337.55" type="building" />
    <poly color="255,230,230" fill="1" id="137625419" layer="-1.00" shape="6913.93,7092.79 6940.80,7095.22 6942.48,7076.96 6915.60,7074.53 6914.26,7088.92 6913.93,7092.79" type="building" />
    <poly color="255,230,230" fill="1" id="137625439" layer="-1.00" shape="6959.31,7056.45 7009.17,7061.31 7011.84,7034.30 6961.98,7029.43 6959.31,7056.45" type="building" />
    <poly color="255,230,230" fill="1" id="137625448" layer="-1.00" shape="7092.48,7256.18 7131.41,7254.54 7130.84,7241.08 7091.92,7242.72 7092.48,7256.18" type="building" />
    <poly color="255,230,230" fill="1" id="137625452" layer="-1.00" shape="7112.80,7178.50 7131.99,7177.64 7131.22,7160.52 7112.04,7161.38 7112.80,7178.50" type="building" />
    <poly color="237,199,199" fill="1" id="137625455" layer="-1.00" shape="6957.49,7107.08 6974.16,7108.67 6973.98,7110.49 6985.50,7111.59 6986.81,7097.99 6982.96,7097.62 6984.97,7076.66 6960.63,7074.35 6957.49,7107.08" type="amenity" />
    <poly color="255,230,230" fill="1" id="137625455#1" layer="-1.00" shape="6957.49,7107.08 6974.16,7108.67 6973.98,7110.49 6985.50,7111.59 6986.81,7097.99 6982.96,7097.62 6984.97,7076.66 6960.63,7074.35 6957.49,7107.08" type="building" />
    <poly color="79,230,125" fill="1" id="137625455#2" layer="-2.00" shape="6957.49,7107.08 6974.16,7108.67 6973.98,7110.49 6985.50,7111.59 6986.81,7097.99 6982.96,7097.62 6984.97,7076.66 6960.63,7074.35 6957.49,7107.08" type="sport" />
    <poly color="255,230,230" fill="1" id="139110246" layer="-1.00" shape="4656.55,8113.46 4604.60,8060.25 4659.10,8007.51 4711.05,8060.72 4656.55,8113.46" type="building" />
    <poly color="255,230,230" fill="1" id="139110249" layer="-1.00" shape="4592.89,8105.85 4625.71,8139.01 4596.38,8169.49 4589.78,8162.75 4569.38,8172.98 4540.20,8202.13 4516.47,8175.33 4563.09,8125.03 4568.66,8130.44 4592.89,8105.85" type="building" />
    <poly color="51,128,255" fill="1" id="141597711" layer="-1.00" shape="7229.09,7504.57 7238.07,7503.16" type="building" />
    <poly color="255,230,230" fill="1" id="141597716" layer="-1.00" shape="7220.49,7329.92 7225.33,7328.05 7224.77,7313.77 7189.86,7314.80 7191.14,7330.94 7220.49,7329.92" type="building" />
    <poly color="255,230,230" fill="1" id="161968165" layer="-1.00" shape="7128.99,7551.07 7210.45,7556.21 7211.73,7536.13 7130.27,7531.00 7128.99,7551.07" type="building" />
    <poly color="255,230,230" fill="1" id="161968193" layer="-1.00" shape="7083.48,7576.89 7125.06,7579.87 7126.97,7553.52 7085.40,7550.54 7083.48,7576.89" type="building" />
    <poly color="255,230,230" fill="1" id="161968200" layer="-1.00" shape="7146.96,7661.78 7177.55,7665.59 7179.82,7647.51 7149.23,7643.70 7146.96,7661.78" type="building" />
    <poly color="255,230,230" fill="1" id="161968205" layer="-1.00" shape="6964.06,7639.23 7019.08,7594.51 7031.70,7608.49 6980.86,7650.18 6964.06,7639.23" type="building" />
    <poly color="255,230,230" fill="1" id="161968214" layer="-1.00" shape="7062.35,7644.84 7126.00,7651.48 7127.70,7635.32 7064.04,7628.68 7062.35,7644.84" type="building" />
    <poly color="255,230,230" fill="1" id="161968217" layer="-1.00" shape="7027.45,7651.11 7035.62,7644.57 7022.15,7627.91 7013.99,7634.44 7027.45,7651.11" type="building" />
    <poly color="255,230,230" fill="1" id="161968223" layer="-1.00" shape="7098.95,7616.02 7097.60,7624.45 7111.19,7626.61 7113.88,7595.26 7083.62,7592.03 7081.24,7614.13 7098.95,7616.02" type="building" />
    <poly color="255,230,230" fill="1" id="161968227" layer="-1.00" shape="7127.23,7535.05 7118.78,7534.46 7118.55,7537.80 7109.54,7537.29 7108.74,7551.22 7126.32,7552.22 7127.23,7535.05" type="building" />
    <poly color="255,230,230" fill="1" id="161968229" layer="-1.00" shape="7116.05,7619.11 7134.33,7621.40 7136.55,7603.87 7181.99,7606.59 7182.93,7591.16 7137.46,7588.44 7136.86,7598.30 7118.97,7596.06 7116.05,7619.11" type="building" />
    <poly color="255,230,230" fill="1" id="161968235" layer="-1.00" shape="7033.18,7586.98 7074.76,7553.00 7083.67,7564.84 7072.38,7574.08 7075.75,7578.02 7067.17,7584.96 7064.26,7582.82 7042.95,7598.72 7033.18,7586.98" type="building" />
    <poly color="194,194,130" fill="1" id="162043811" layer="-3.00" shape="7252.10,9138.95 7257.88,9120.82 7294.24,9130.73 7287.74,9149.70 7252.10,9138.95" type="landuse" />
    <poly color="237,199,199" fill="1" id="162043814" layer="-1.00" shape="7235.47,9172.69 7241.86,9160.13 7253.88,9165.63 7257.12,9167.21 7259.10,9169.37 7287.01,9182.94 7277.04,9200.93 7246.06,9184.32 7248.50,9179.21 7235.47,9172.69" type="amenity" />
    <poly color="255,230,230" fill="1" id="162376657" layer="-1.00" shape="5653.35,9570.90 5655.72,9567.12 5646.09,9561.13 5643.72,9564.92 5653.35,9570.90" type="building" />
    <poly color="255,230,230" fill="1" id="162376660" layer="-1.00" shape="5710.43,9479.91 5671.50,9448.87 5687.67,9428.78 5710.16,9445.05 5713.84,9440.86 5723.78,9448.66 5725.24,9458.73 5710.43,9479.91" type="building" />
    <poly color="255,230,230" fill="1" id="162376669" layer="-1.00" shape="5637.93,9596.50 5628.35,9590.74 5635.35,9579.19 5644.94,9584.95 5637.93,9596.50" type="building" />
    <poly color="255,230,230" fill="1" id="162376680" layer="-1.00" shape="5696.00,9503.17 5700.35,9496.44 5690.63,9490.19 5686.19,9497.07 5696.00,9503.17" type="building" />
    <poly color="255,230,230" fill="1" id="162376681" layer="-1.00" shape="5685.03,9520.38 5692.24,9508.83 5682.47,9502.79 5675.17,9514.47 5685.03,9520.38" type="building" />
    <poly color="255,230,230" fill="1" id="162376682" layer="-1.00" shape="5662.17,9556.50 5652.36,9550.63 5662.06,9534.54 5672.10,9540.39 5669.11,9545.60 5667.75,9544.96 5663.62,9551.53 5664.66,9552.35 5662.17,9556.50" type="building" />
    <poly color="255,230,230" fill="1" id="162376683" layer="-1.00" shape="5679.49,9529.21 5681.55,9525.62 5671.51,9519.90 5669.44,9523.49 5679.49,9529.21" type="building" />
    <poly color="255,230,230" fill="1" id="162376684" layer="-1.00" shape="5656.22,9566.16 5658.65,9562.42 5648.92,9556.43 5646.61,9560.39 5656.22,9566.16" type="building" />
    <poly color="255,230,230" fill="1" id="162376685" layer="-1.00" shape="5658.97,9561.58 5661.18,9558.07 5651.73,9552.32 5649.64,9555.82 5658.97,9561.58" type="building" />
    <poly color="255,230,230" fill="1" id="162376687" layer="-1.00" shape="5700.74,9495.37 5706.48,9486.84 5697.13,9480.03 5691.55,9488.85 5700.74,9495.37" type="building" />
    <poly color="255,230,230" fill="1" id="162376688" layer="-1.00" shape="5681.99,9525.09 5684.36,9521.26 5674.45,9515.17 5671.85,9519.36 5681.99,9525.09" type="building" />
    <poly color="255,230,230" fill="1" id="162376689" layer="-1.00" shape="5686.29,9497.51 5683.79,9501.46 5693.02,9507.25 5695.52,9503.29 5686.29,9497.51" type="building" />
    <poly color="255,230,230" fill="1" id="162376690" layer="-1.00" shape="5629.84,9610.95 5620.03,9605.08 5627.53,9592.67 5636.88,9598.26 5633.04,9604.63 5630.99,9603.40 5629.76,9605.42 5631.82,9606.65 5629.84,9610.95" type="building" />
    <poly color="255,230,230" fill="1" id="162383514" layer="-1.00" shape="5719.13,9405.89 5724.87,9398.47 5718.88,9393.87 5713.13,9401.30 5719.13,9405.89" type="building" />
    <poly color="255,230,230" fill="1" id="162383516" layer="-1.00" shape="5686.34,9380.96 5692.54,9372.96 5697.02,9376.40 5690.84,9384.41 5686.34,9380.96" type="building" />
    <poly color="255,230,230" fill="1" id="162383517" layer="-1.00" shape="5696.59,9388.41 5701.90,9392.54 5708.39,9384.27 5703.09,9380.14 5696.59,9388.41" type="building" />
    <poly color="255,230,230" fill="1" id="162383519" layer="-1.00" shape="5727.60,9412.52 5733.38,9405.49 5737.48,9408.83 5731.70,9415.86 5727.60,9412.52" type="building" />
    <poly color="255,230,230" fill="1" id="162383522" layer="-1.00" shape="5695.42,9387.83 5691.94,9385.19 5698.35,9376.78 5701.83,9379.42 5695.42,9387.83" type="building" />
    <poly color="255,230,230" fill="1" id="164586088" layer="-1.00" shape="6860.33,7940.23 6869.68,7948.46 6873.31,7944.37 6863.97,7936.15 6860.33,7940.23" type="building" />
    <poly color="255,230,230" fill="1" id="164586089" layer="-1.00" shape="6871.61,7666.51 6876.44,7668.16 6881.98,7652.02 6877.15,7650.38 6871.61,7666.51" type="building" />
    <poly color="255,230,230" fill="1" id="164586090" layer="-1.00" shape="6891.43,7852.59 6901.92,7856.53 6905.08,7848.20 6894.59,7844.25 6891.43,7852.59" type="building" />
    <poly color="255,230,230" fill="1" id="164586091" layer="-1.00" shape="7102.67,7815.15 7109.21,7818.86 7110.55,7816.53 7104.01,7812.81 7102.67,7815.15" type="building" />
    <poly color="255,230,230" fill="1" id="164586092" layer="-1.00" shape="7023.43,7789.02 7036.62,7798.64 7040.85,7792.89 7027.67,7783.27 7023.43,7789.02" type="building" />
    <poly color="255,230,230" fill="1" id="164586093" layer="-1.00" shape="6939.34,7759.22 6951.29,7762.19 6952.75,7756.37 6940.80,7753.40 6939.34,7759.22" type="building" />
    <poly color="255,230,230" fill="1" id="164586094" layer="-1.00" shape="6969.14,7849.32 6996.90,7848.09 6996.50,7839.17 6968.74,7840.41 6969.14,7849.32" type="building" />
    <poly color="255,230,230" fill="1" id="164586095" layer="-1.00" shape="7018.19,7761.03 7029.95,7765.89 7033.90,7756.40 7022.14,7751.56 7018.19,7761.03" type="building" />
    <poly color="255,230,230" fill="1" id="164586096" layer="-1.00" shape="6871.64,7976.61 6877.07,7969.28 6870.28,7964.30 6864.86,7971.65 6871.64,7976.61" type="building" />
    <poly color="255,230,230" fill="1" id="164586097" layer="-1.00" shape="6885.22,7861.12 6901.40,7866.93 6904.05,7859.60 6887.88,7853.79 6885.22,7861.12" type="building" />
    <poly color="255,230,230" fill="1" id="164586098" layer="-1.00" shape="7005.95,7751.23 7013.43,7753.83 7017.47,7742.28 7009.99,7739.69 7005.95,7751.23" type="building" />
    <poly color="255,230,230" fill="1" id="164586099" layer="-1.00" shape="6957.91,7773.42 6974.55,7777.63 6976.61,7769.59 6959.96,7765.38 6957.91,7773.42" type="building" />
    <poly color="255,230,230" fill="1" id="164586100" layer="-1.00" shape="6911.64,7842.22 6917.99,7843.67 6920.84,7831.31 6914.49,7829.86 6911.64,7842.22" type="building" />
    <poly color="255,230,230" fill="1" id="164586101" layer="-1.00" shape="6941.98,7770.13 6950.35,7772.21 6952.47,7763.77 6944.10,7761.68 6941.98,7770.13" type="building" />
    <poly color="255,230,230" fill="1" id="164586102" layer="-1.00" shape="6722.16,8143.71 6731.03,8146.08 6734.97,8131.45 6726.09,8129.09 6722.16,8143.71" type="building" />
    <poly color="255,230,230" fill="1" id="164586103" layer="-1.00" shape="7022.33,7839.04 7031.47,7840.43 7032.41,7834.36 7023.26,7832.96 7022.33,7839.04" type="building" />
    <poly color="255,230,230" fill="1" id="164586104" layer="-1.00" shape="6930.08,7930.93 6945.28,7941.86 6950.02,7935.31 6934.82,7924.39 6930.08,7930.93" type="building" />
    <poly color="255,230,230" fill="1" id="164586105" layer="-1.00" shape="6979.64,7811.56 6988.39,7813.52 6989.86,7807.02 6981.12,7805.05 6979.64,7811.56" type="building" />
    <poly color="255,230,230" fill="1" id="164586106" layer="-1.00" shape="6943.65,7823.70 6952.69,7825.53 6954.71,7815.60 6945.68,7813.78 6943.65,7823.70" type="building" />
    <poly color="255,230,230" fill="1" id="164586107" layer="-1.00" shape="6858.97,7979.54 6864.36,7983.49 6869.65,7976.34 6864.25,7972.39 6858.97,7979.54" type="building" />
    <poly color="255,230,230" fill="1" id="164586108" layer="-1.00" shape="6961.58,7695.00 6965.73,7695.84 6969.15,7682.41 6964.08,7679.62 6961.58,7695.00" type="building" />
    <poly color="255,230,230" fill="1" id="164586109" layer="-1.00" shape="6954.35,7796.87 6967.61,7799.83 6969.23,7792.62 6955.99,7789.65 6954.35,7796.87" type="building" />
    <poly color="255,230,230" fill="1" id="164586110" layer="-1.00" shape="6768.68,8067.53 6774.71,8069.38 6775.07,8068.19 6776.38,8063.98 6770.35,8062.13 6769.04,8066.37 6768.68,8067.53" type="building" />
    <poly color="255,230,230" fill="1" id="164586111" layer="-1.00" shape="6836.96,7959.65 6842.13,7952.51 6836.99,7948.83 6831.83,7955.97 6836.96,7959.65" type="building" />
    <poly color="255,230,230" fill="1" id="164586112" layer="-1.00" shape="6908.83,7828.54 6911.71,7829.36 6912.93,7825.08 6910.05,7824.27 6908.83,7828.54" type="building" />
    <poly color="255,230,230" fill="1" id="164586113" layer="-1.00" shape="6860.31,7630.14 6863.00,7619.16 6855.22,7617.28 6852.53,7628.25 6860.31,7630.14" type="building" />
    <poly color="255,230,230" fill="1" id="164586114" layer="-1.00" shape="6941.43,7913.52 6943.80,7915.20 6948.12,7909.14 6945.75,7907.46 6941.43,7913.52" type="building" />
    <poly color="255,230,230" fill="1" id="164586115" layer="-1.00" shape="7062.22,7868.83 7069.22,7874.14 7071.96,7870.58 7064.96,7865.26 7062.22,7868.83" type="building" />
    <poly color="255,230,230" fill="1" id="164586116" layer="-1.00" shape="7088.95,7825.74 7097.37,7831.57 7101.35,7825.87 7092.93,7820.04 7088.95,7825.74" type="building" />
    <poly color="255,230,230" fill="1" id="164586117" layer="-1.00" shape="6925.52,7752.38 6932.00,7753.91 6934.38,7743.83 6927.91,7742.32 6925.52,7752.38" type="building" />
    <poly color="255,230,230" fill="1" id="164586118" layer="-1.00" shape="6766.49,8157.41 6774.89,8159.97 6779.59,8144.67 6771.19,8142.12 6766.49,8157.41" type="building" />
    <poly color="255,230,230" fill="1" id="164586119" layer="-1.00" shape="6924.96,7812.51 6936.95,7814.93 6938.43,7807.65 6926.44,7805.22 6924.96,7812.51" type="building" />
    <poly color="255,230,230" fill="1" id="164586120" layer="-1.00" shape="6867.40,7985.72 6873.53,7990.21 6878.36,7983.66 6872.23,7979.18 6867.40,7985.72" type="building" />
    <poly color="255,230,230" fill="1" id="164586121" layer="-1.00" shape="6980.93,7716.08 6988.16,7718.60 6990.79,7711.17 6983.55,7708.63 6980.93,7716.08" type="building" />
    <poly color="255,230,230" fill="1" id="164586122" layer="-1.00" shape="6967.38,7808.94 6978.79,7811.50 6980.62,7803.41 6969.20,7800.86 6967.38,7808.94" type="building" />
    <poly color="255,230,230" fill="1" id="164586123" layer="-1.00" shape="6950.55,7692.55 6960.97,7694.11 6963.34,7678.42 6952.92,7676.87 6950.55,7692.55" type="building" />
    <poly color="255,230,230" fill="1" id="164586124" layer="-1.00" shape="7095.15,7805.42 7101.54,7809.83 7108.66,7799.61 7102.28,7795.20 7095.15,7805.42" type="building" />
    <poly color="255,230,230" fill="1" id="164586125" layer="-1.00" shape="6970.14,7697.29 6973.48,7685.61 6969.52,7684.48 6966.17,7696.17 6970.14,7697.29" type="building" />
    <poly color="255,230,230" fill="1" id="164586127" layer="-1.00" shape="6944.30,7915.25 6946.77,7917.00 6950.50,7911.76 6948.03,7910.02 6944.30,7915.25" type="building" />
    <poly color="255,230,230" fill="1" id="164586132" layer="-1.00" shape="7029.29,7805.40 7033.42,7798.34 7021.10,7791.17 7016.95,7798.24 7029.29,7805.40" type="building" />
    <poly color="255,230,230" fill="1" id="164586134" layer="-1.00" shape="6971.76,7713.45 6978.27,7716.03 6981.95,7706.83 6975.46,7704.24 6971.76,7713.45" type="building" />
    <poly color="255,230,230" fill="1" id="164586135" layer="-1.00" shape="6870.28,7890.52 6869.81,7877.04 6864.08,7877.24 6864.56,7890.72 6870.28,7890.52" type="building" />
    <poly color="255,230,230" fill="1" id="164586136" layer="-1.00" shape="7080.33,7808.52 7087.70,7813.25 7090.77,7808.51 7083.40,7803.79 7080.33,7808.52" type="building" />
    <poly color="255,230,230" fill="1" id="164586137" layer="-1.00" shape="7000.41,7749.98 7004.89,7751.55 7008.63,7741.02 7004.15,7739.45 7000.41,7749.98" type="building" />
    <poly color="255,230,230" fill="1" id="164586139" layer="-1.00" shape="6849.06,7831.69 6852.43,7813.89 6846.93,7812.86 6843.56,7830.66 6849.06,7831.69" type="building" />
    <poly color="255,230,230" fill="1" id="164586144" layer="-1.00" shape="7005.51,7850.52 7016.06,7851.87 7017.42,7841.25 7006.89,7839.90 7005.51,7850.52" type="building" />
    <poly color="255,230,230" fill="1" id="164586146" layer="-1.00" shape="6906.06,7909.64 6914.84,7916.63 6919.37,7910.99 6910.59,7904.00 6906.06,7909.64" type="building" />
    <poly color="255,230,230" fill="1" id="164586147" layer="-1.00" shape="6985.89,7799.85 6990.69,7800.76 6992.58,7790.97 6987.78,7790.05 6985.89,7799.85" type="building" />
    <poly color="255,230,230" fill="1" id="164586148" layer="-1.00" shape="6880.83,7639.61 6886.14,7640.37 6887.29,7632.36 6881.98,7631.60 6880.83,7639.61" type="building" />
    <poly color="255,230,230" fill="1" id="164586149" layer="-1.00" shape="6871.27,7871.97 6871.07,7862.22 6863.56,7862.38 6863.76,7872.13 6871.27,7871.97" type="building" />
    <poly color="255,230,230" fill="1" id="164586151" layer="-1.00" shape="6871.89,7963.11 6876.12,7966.20 6878.74,7962.66 6874.50,7959.56 6871.89,7963.11" type="building" />
    <poly color="255,230,230" fill="1" id="164586156" layer="-1.00" shape="6865.65,7957.85 6871.29,7962.33 6876.63,7955.65 6870.99,7951.17 6865.65,7957.85" type="building" />
    <poly color="255,230,230" fill="1" id="164586157" layer="-1.00" shape="7005.00,7850.22 7006.42,7839.75 6999.56,7838.82 6998.14,7849.29 7005.00,7850.22" type="building" />
    <poly color="255,230,230" fill="1" id="164586158" layer="-1.00" shape="7003.16,7801.98 7008.21,7804.00 7010.90,7797.31 7005.85,7795.30 7003.16,7801.98" type="building" />
    <poly color="255,230,230" fill="1" id="164586159" layer="-1.00" shape="6976.39,7797.34 6985.47,7799.05 6986.69,7792.68 6977.61,7790.97 6976.39,7797.34" type="building" />
    <poly color="255,230,230" fill="1" id="164586161" layer="-1.00" shape="6953.72,7785.59 6970.95,7789.87 6973.00,7781.73 6955.77,7777.44 6953.72,7785.59" type="building" />
    <poly color="255,230,230" fill="1" id="164586166" layer="-1.00" shape="7060.16,7795.23 7077.57,7803.15 7082.52,7792.38 7065.10,7784.46 7060.16,7795.23" type="building" />
    <poly color="255,230,230" fill="1" id="164586168" layer="-1.00" shape="6978.25,7770.85 6984.06,7771.78 6986.68,7755.67 6980.87,7754.74 6978.25,7770.85" type="building" />
    <poly color="255,230,230" fill="1" id="164586169" layer="-1.00" shape="6854.65,7970.31 6871.10,7949.99 6862.63,7943.21 6846.19,7963.52 6854.65,7970.31" type="building" />
    <poly color="255,230,230" fill="1" id="164586170" layer="-1.00" shape="7039.38,7776.54 7046.79,7780.92 7050.09,7775.39 7042.68,7771.01 7039.38,7776.54" type="building" />