[General]
cmdenv-config-name =
record-eventlog = false
sim-time-limit = 600s
#debug-on-errors = true
print-undisposed = true

cmdenv-express-mode = true
cmdenv-autoflush = true

simtime-resolution = ps
**.bin-recording = false
**.cmdenv-log-level = TRACE
**.module-eventlog-recording = false
**.scalar-recording = false
**.statistic-recording = false
**.vector-record-eventnumbers = false
**.vector-recording = false

*.traci.core.version = -1
*.traci.launcher.typename = "PosixLauncher"
*.traci.launcher.sumo = "sumo-gui"

# separate random number generator for vehicle penetration rate
num-rngs = 2
*.traci.mapper.rng-0 = 1

[Config veins]
network = artery.veins.GridWorld

*.traci.launcher.sumocfg = "../../extern/veins/examples/veins/grid/grid.sumo.cfg"
*.playgroundSizeX = 900m
*.playgroundSizeY = 900m
*.playgroundSizeZ = 20m

*.connectionManager.maxInterfDist = 1500m
*.connectionManager.sendDirect = true
*.connectionManager.coreDebug = false

*.withObstacles = true
*.obstacles.obstacles = xmldoc("veins_config.xml", "//AnalogueModel[@type='SimpleObstacleShadowing']/obstacles")

*.node[*].nic.mac1609_4.useAcks = true
*.node[*].nic.mac1609_4.useServiceChannel = false
*.node[*].nic.mac1609_4.txPower = 126mW
*.node[*].nic.phy80211p.usePropagationDelay = true
*.node[*].nic.phy80211p.sensitivity = -89dBm
*.node[*].nic.phy80211p.useThermalNoise = true
*.node[*].nic.phy80211p.thermalNoise = -110dBm
*.node[*].nic.phy80211p.decider = xmldoc("veins_config.xml")
*.node[*].nic.phy80211p.analogueModels = xmldoc("veins_config.xml")

*.node[*].applType = "artery.veins.ApplicationLayer"
*.node[*].appl.middleware.updateInterval = 0.1s
*.node[*].appl.middleware.datetime = "2013-06-01 12:35:00"
*.node[*].appl.middleware.services = xmldoc("services.xml")
*.node[*].appl.middleware.CaService.fixedRate = true




*.configurator.config = xmldoc("ip.xml")
**.ripConfig = xmldoc("RIPConfig.xml")

*.router[*].**.ip.ttl = 5


*.numProxyCamDevsParEdge = 9
*.pcam[*].mobility.numProxyCamDevsParEdge = 9
*.router[*].mobility.numProxyCamDevsParEdge = 9

*.pcam[*].mobility.z = 10

*.pcam[*].mobility.x = 0
*.pcam[*].mobility.y = 0

#*.pcam[0].mobility.y = 0
#*.pcam[1].mobility.y = 0
#*.pcam[2].mobility.y = 0
#*.pcam[3].mobility.y = 100
#*.pcam[4].mobility.y = 100
#*.pcam[5].mobility.y = 100
#*.pcam[6].mobility.y = 200
#*.pcam[7].mobility.y = 200
#*.pcam[8].mobility.y = 200
#
#*.pcam[0].mobility.x = 0
#*.pcam[1].mobility.x = 100
#*.pcam[2].mobility.x = 200
#*.pcam[3].mobility.x = 0
#*.pcam[4].mobility.x = 100
#*.pcam[5].mobility.x = 200
#*.pcam[6].mobility.x = 0
#*.pcam[7].mobility.x = 100
#*.pcam[8].mobility.x = 200

#*.pcam[0].mobility.y = 0
#*.pcam[1].mobility.y = 0
#*.pcam[2].mobility.y = 0
#*.pcam[3].mobility.y = 0
#*.pcam[4].mobility.y = 0
#*.pcam[5].mobility.y = 0
#*.pcam[6].mobility.y = 0
#*.pcam[7].mobility.y = 0
#*.pcam[8].mobility.y = 0
#*.pcam[9].mobility.y = 100
#*.pcam[10].mobility.y = 100
#*.pcam[11].mobility.y = 100
#*.pcam[12].mobility.y = 100
#*.pcam[13].mobility.y = 100
#*.pcam[14].mobility.y = 100
#*.pcam[15].mobility.y = 100
#*.pcam[16].mobility.y = 100
#*.pcam[17].mobility.y = 100
#*.pcam[18].mobility.y = 200
#*.pcam[19].mobility.y = 200
#*.pcam[20].mobility.y = 200
#*.pcam[21].mobility.y = 200
#*.pcam[22].mobility.y = 200
#*.pcam[23].mobility.y = 200
#*.pcam[24].mobility.y = 200
#*.pcam[25].mobility.y = 200
#*.pcam[26].mobility.y = 200
#*.pcam[27].mobility.y = 300
#*.pcam[28].mobility.y = 300
#*.pcam[29].mobility.y = 300
#*.pcam[30].mobility.y = 300
#*.pcam[31].mobility.y = 300
#*.pcam[32].mobility.y = 300
#*.pcam[33].mobility.y = 300
#*.pcam[34].mobility.y = 300
#*.pcam[35].mobility.y = 300
#*.pcam[36].mobility.y = 400
#*.pcam[37].mobility.y = 400
#*.pcam[38].mobility.y = 400
#*.pcam[39].mobility.y = 400
#*.pcam[40].mobility.y = 400
#*.pcam[41].mobility.y = 400
#*.pcam[42].mobility.y = 400
#*.pcam[43].mobility.y = 400
#*.pcam[44].mobility.y = 400
#*.pcam[45].mobility.y = 500
#*.pcam[46].mobility.y = 500
#*.pcam[47].mobility.y = 500
#*.pcam[48].mobility.y = 500
#*.pcam[49].mobility.y = 500
#*.pcam[50].mobility.y = 500
#*.pcam[51].mobility.y = 500
#*.pcam[52].mobility.y = 500
#*.pcam[53].mobility.y = 500
#*.pcam[54].mobility.y = 600
#*.pcam[55].mobility.y = 600
#*.pcam[56].mobility.y = 600
#*.pcam[57].mobility.y = 600
#*.pcam[58].mobility.y = 600
#*.pcam[59].mobility.y = 600
#*.pcam[60].mobility.y = 600
#*.pcam[61].mobility.y = 600
#*.pcam[62].mobility.y = 600
#*.pcam[63].mobility.y = 700
#*.pcam[64].mobility.y = 700
#*.pcam[65].mobility.y = 700
#*.pcam[66].mobility.y = 700
#*.pcam[67].mobility.y = 700
#*.pcam[68].mobility.y = 700
#*.pcam[69].mobility.y = 700
#*.pcam[70].mobility.y = 700
#*.pcam[71].mobility.y = 700
#*.pcam[72].mobility.y = 800
#*.pcam[73].mobility.y = 800
#*.pcam[74].mobility.y = 800
#*.pcam[75].mobility.y = 800
#*.pcam[76].mobility.y = 800
#*.pcam[77].mobility.y = 800
#*.pcam[78].mobility.y = 800
#*.pcam[79].mobility.y = 800
#*.pcam[80].mobility.y = 800
#
#*.pcam[0].mobility.x = 0
#*.pcam[1].mobility.x = 100
#*.pcam[2].mobility.x = 200
#*.pcam[3].mobility.x = 300
#*.pcam[4].mobility.x = 400
#*.pcam[5].mobility.x = 500
#*.pcam[6].mobility.x = 600
#*.pcam[7].mobility.x = 700
#*.pcam[8].mobility.x = 800
#*.pcam[9].mobility.x = 0
#*.pcam[10].mobility.x = 100
#*.pcam[11].mobility.x = 200
#*.pcam[12].mobility.x = 300
#*.pcam[13].mobility.x = 400
#*.pcam[14].mobility.x = 500
#*.pcam[15].mobility.x = 600
#*.pcam[16].mobility.x = 700
#*.pcam[17].mobility.x = 800
#*.pcam[18].mobility.x = 0
#*.pcam[19].mobility.x = 100
#*.pcam[20].mobility.x = 200
#*.pcam[21].mobility.x = 300
#*.pcam[22].mobility.x = 400
#*.pcam[23].mobility.x = 500
#*.pcam[24].mobility.x = 600
#*.pcam[25].mobility.x = 700
#*.pcam[26].mobility.x = 800
#*.pcam[27].mobility.x = 0
#*.pcam[28].mobility.x = 100
#*.pcam[29].mobility.x = 200
#*.pcam[30].mobility.x = 300
#*.pcam[31].mobility.x = 400
#*.pcam[32].mobility.x = 500
#*.pcam[33].mobility.x = 600
#*.pcam[34].mobility.x = 700
#*.pcam[35].mobility.x = 800
#*.pcam[36].mobility.x = 0
#*.pcam[37].mobility.x = 100
#*.pcam[38].mobility.x = 200
#*.pcam[39].mobility.x = 300
#*.pcam[40].mobility.x = 400
#*.pcam[41].mobility.x = 500
#*.pcam[42].mobility.x = 600
#*.pcam[43].mobility.x = 700
#*.pcam[44].mobility.x = 800
#*.pcam[45].mobility.x = 0
#*.pcam[46].mobility.x = 100
#*.pcam[47].mobility.x = 200
#*.pcam[48].mobility.x = 300
#*.pcam[49].mobility.x = 400
#*.pcam[50].mobility.x = 500
#*.pcam[51].mobility.x = 600
#*.pcam[52].mobility.x = 700
#*.pcam[53].mobility.x = 800
#*.pcam[54].mobility.x = 0
#*.pcam[55].mobility.x = 100
#*.pcam[56].mobility.x = 200
#*.pcam[57].mobility.x = 300
#*.pcam[58].mobility.x = 400
#*.pcam[59].mobility.x = 500
#*.pcam[60].mobility.x = 600
#*.pcam[61].mobility.x = 700
#*.pcam[62].mobility.x = 800
#*.pcam[63].mobility.x = 0
#*.pcam[64].mobility.x = 100
#*.pcam[65].mobility.x = 200
#*.pcam[66].mobility.x = 300
#*.pcam[67].mobility.x = 400
#*.pcam[68].mobility.x = 500
#*.pcam[69].mobility.x = 600
#*.pcam[70].mobility.x = 700
#*.pcam[71].mobility.x = 800
#*.pcam[72].mobility.x = 0
#*.pcam[73].mobility.x = 100
#*.pcam[74].mobility.x = 200
#*.pcam[75].mobility.x = 300
#*.pcam[76].mobility.x = 400
#*.pcam[77].mobility.x = 500
#*.pcam[78].mobility.x = 600
#*.pcam[79].mobility.x = 700
#*.pcam[80].mobility.x = 800

*.router[*].mobility.z = 10

*.router[*].mobility.x = 0
*.router[*].mobility.y = 0
#*.router[0].mobility.y = 10
#*.router[1].mobility.y = 10
#*.router[2].mobility.y = 10
#*.router[3].mobility.y = 110
#*.router[4].mobility.y = 110
#*.router[5].mobility.y = 110
#*.router[6].mobility.y = 210
#*.router[7].mobility.y = 210
#*.router[8].mobility.y = 210
#
#*.router[0].mobility.x = 10
#*.router[1].mobility.x = 110
#*.router[2].mobility.x = 210
#*.router[3].mobility.x = 10
#*.router[4].mobility.x = 110
#*.router[5].mobility.x = 210
#*.router[6].mobility.x = 10
#*.router[7].mobility.x = 110
#*.router[8].mobility.x = 210

#*.router[0].mobility.y = 10
#*.router[1].mobility.y = 10
#*.router[2].mobility.y = 10
#*.router[3].mobility.y = 10
#*.router[4].mobility.y = 10
#*.router[5].mobility.y = 10
#*.router[6].mobility.y = 10
#*.router[7].mobility.y = 10
#*.router[8].mobility.y = 10
#*.router[9].mobility.y = 110
#*.router[10].mobility.y = 110
#*.router[11].mobility.y = 110
#*.router[12].mobility.y = 110
#*.router[13].mobility.y = 110
#*.router[14].mobility.y = 110
#*.router[15].mobility.y = 110
#*.router[16].mobility.y = 110
#*.router[17].mobility.y = 110
#*.router[18].mobility.y = 210
#*.router[19].mobility.y = 210
#*.router[20].mobility.y = 210
#*.router[21].mobility.y = 210
#*.router[22].mobility.y = 210
#*.router[23].mobility.y = 210
#*.router[24].mobility.y = 210
#*.router[25].mobility.y = 210
#*.router[26].mobility.y = 210
#*.router[27].mobility.y = 310
#*.router[28].mobility.y = 310
#*.router[29].mobility.y = 310
#*.router[30].mobility.y = 310
#*.router[31].mobility.y = 310
#*.router[32].mobility.y = 310
#*.router[33].mobility.y = 310
#*.router[34].mobility.y = 310
#*.router[35].mobility.y = 310
#*.router[36].mobility.y = 410
#*.router[37].mobility.y = 410
#*.router[38].mobility.y = 410
#*.router[39].mobility.y = 410
#*.router[40].mobility.y = 410
#*.router[41].mobility.y = 410
#*.router[42].mobility.y = 410
#*.router[43].mobility.y = 410
#*.router[44].mobility.y = 410
#*.router[45].mobility.y = 510
#*.router[46].mobility.y = 510
#*.router[47].mobility.y = 510
#*.router[48].mobility.y = 510
#*.router[49].mobility.y = 510
#*.router[50].mobility.y = 510
#*.router[51].mobility.y = 510
#*.router[52].mobility.y = 510
#*.router[53].mobility.y = 510
#*.router[54].mobility.y = 610
#*.router[55].mobility.y = 610
#*.router[56].mobility.y = 610
#*.router[57].mobility.y = 610
#*.router[58].mobility.y = 610
#*.router[59].mobility.y = 610
#*.router[60].mobility.y = 610
#*.router[61].mobility.y = 610
#*.router[62].mobility.y = 610
#*.router[63].mobility.y = 710
#*.router[64].mobility.y = 710
#*.router[65].mobility.y = 710
#*.router[66].mobility.y = 710
#*.router[67].mobility.y = 710
#*.router[68].mobility.y = 710
#*.router[69].mobility.y = 710
#*.router[70].mobility.y = 710
#*.router[71].mobility.y = 710
#*.router[72].mobility.y = 810
#*.router[73].mobility.y = 810
#*.router[74].mobility.y = 810
#*.router[75].mobility.y = 810
#*.router[76].mobility.y = 810
#*.router[77].mobility.y = 810
#*.router[78].mobility.y = 810
#*.router[79].mobility.y = 810
#*.router[80].mobility.y = 810
#
#*.router[0].mobility.x = 10
#*.router[1].mobility.x = 110
#*.router[2].mobility.x = 210
#*.router[3].mobility.x = 310
#*.router[4].mobility.x = 410
#*.router[5].mobility.x = 510
#*.router[6].mobility.x = 610
#*.router[7].mobility.x = 710
#*.router[8].mobility.x = 810
#*.router[9].mobility.x = 10
#*.router[10].mobility.x = 110
#*.router[11].mobility.x = 210
#*.router[12].mobility.x = 310
#*.router[13].mobility.x = 410
#*.router[14].mobility.x = 510
#*.router[15].mobility.x = 610
#*.router[16].mobility.x = 710
#*.router[17].mobility.x = 810
#*.router[18].mobility.x = 10
#*.router[19].mobility.x = 110
#*.router[20].mobility.x = 210
#*.router[21].mobility.x = 310
#*.router[22].mobility.x = 410
#*.router[23].mobility.x = 510
#*.router[24].mobility.x = 610
#*.router[25].mobility.x = 710
#*.router[26].mobility.x = 810
#*.router[27].mobility.x = 10
#*.router[28].mobility.x = 110
#*.router[29].mobility.x = 210
#*.router[30].mobility.x = 310
#*.router[31].mobility.x = 410
#*.router[32].mobility.x = 510
#*.router[33].mobility.x = 610
#*.router[34].mobility.x = 710
#*.router[35].mobility.x = 810
#*.router[36].mobility.x = 10
#*.router[37].mobility.x = 110
#*.router[38].mobility.x = 210
#*.router[39].mobility.x = 310
#*.router[40].mobility.x = 410
#*.router[41].mobility.x = 510
#*.router[42].mobility.x = 610
#*.router[43].mobility.x = 710
#*.router[44].mobility.x = 810
#*.router[45].mobility.x = 10
#*.router[46].mobility.x = 110
#*.router[47].mobility.x = 210
#*.router[48].mobility.x = 310
#*.router[49].mobility.x = 410
#*.router[50].mobility.x = 510
#*.router[51].mobility.x = 610
#*.router[52].mobility.x = 710
#*.router[53].mobility.x = 810
#*.router[54].mobility.x = 10
#*.router[55].mobility.x = 110
#*.router[56].mobility.x = 210
#*.router[57].mobility.x = 310
#*.router[58].mobility.x = 410
#*.router[59].mobility.x = 510
#*.router[60].mobility.x = 610
#*.router[61].mobility.x = 710
#*.router[62].mobility.x = 810
#*.router[63].mobility.x = 10
#*.router[64].mobility.x = 110
#*.router[65].mobility.x = 210
#*.router[66].mobility.x = 310
#*.router[67].mobility.x = 410
#*.router[68].mobility.x = 510
#*.router[69].mobility.x = 610
#*.router[70].mobility.x = 710
#*.router[71].mobility.x = 810
#*.router[72].mobility.x = 10
#*.router[73].mobility.x = 110
#*.router[74].mobility.x = 210
#*.router[75].mobility.x = 310
#*.router[76].mobility.x = 410
#*.router[77].mobility.x = 510
#*.router[78].mobility.x = 610
#*.router[79].mobility.x = 710
#*.router[80].mobility.x = 810


*.annotations.draw = false

*.pcam[*].*.numUdpApps = 1
*.pcam[*].sensor.udpApp[0].typename = "UDPCamSender"
*.pcam[*].sensor.udpApp[0].datetime = "2013-06-01 12:35:00"
*.pcam[*].sensor.udpApp[0].destAddresses = "all"
#*.pcam[*].sensor.udpApp[0].destAddresses = "pcam[0].disseminator"
*.pcam[*].sensor.udpApp[0].destPort = 1000
*.pcam[*].sensor.udpApp[0].messageLength = 2000B
*.pcam[*].sensor.udpApp[0].sendInterval = 0.1s
*.pcam[*].sensor.udpApp[0].startTime = 100s
*.pcam[*].sensor.udpApp[0].stopTime = 1000s
*.pcam[*].sensor.networkLayer.ip.forceBroadcast = true

*.pcam[*].disseminator.udpApp[0].typename = "UDPCamListener"
*.pcam[*].disseminator.udpApp[0].localPort = 1000



*.pcam[*].disseminator.nic.mac1609_4.useAcks = true
*.pcam[*].disseminator.nic.mac1609_4.useServiceChannel = false
*.pcam[*].disseminator.nic.mac1609_4.txPower = 126mW
*.pcam[*].disseminator.nic.phy80211p.usePropagationDelay = true
*.pcam[*].disseminator.nic.phy80211p.sensitivity = -89dBm
*.pcam[*].disseminator.nic.phy80211p.useThermalNoise = true
*.pcam[*].disseminator.nic.phy80211p.thermalNoise = -110dBm
*.pcam[*].disseminator.nic.phy80211p.decider = xmldoc("veins_config.xml")
*.pcam[*].disseminator.nic.phy80211p.analogueModels = xmldoc("veins_config.xml")

*.pcam[*].disseminator.applType = "artery.veins.ApplicationLayer"
*.pcam[*].disseminator.appl.middleware.updateInterval = 100000s
# CAMの自動生成を止めるためにupdateIntervalはシミュレーション中にapiが動かないようにする
*.pcam[*].disseminator.appl.middleware.datetime = "2013-06-01 12:35:00"
*.pcam[*].disseminator.appl.middleware.services = xmldoc("pcamServices.xml")
*.pcam[*].disseminator.appl.middleware.RSUCaService.fixedRate = true


*.numRoadSideUnits = 2

*.rsu[*].appl.middleware.updateInterval = 100000s
*.rsu[*].appl.middleware.datetime = "2013-06-01 12:35:00"
*.rsu[*].appl.middleware.services = xmldoc("services.xml")

*.rsu[*].nic.mac1609_4.useAcks = true
*.rsu[*].nic.mac1609_4.useServiceChannel = false
*.rsu[*].nic.mac1609_4.txPower = 126mW
*.rsu[*].nic.phy80211p.sensitivity = -89dBm
*.rsu[*].nic.phy80211p.usePropagationDelay = true
*.rsu[*].nic.phy80211p.useThermalNoise = true
*.rsu[*].nic.phy80211p.thermalNoise = -110dBm
*.rsu[*].nic.phy80211p.decider = xmldoc("veins_config.xml")
*.rsu[*].nic.phy80211p.analogueModels = xmldoc("veins_config.xml")

*.rsu[*].mobility.z = 10

*.rsu[0].mobility.x = 100
*.rsu[0].mobility.y = 100
*.rsu[1].mobility.x = 100
*.rsu[1].mobility.y = 100




**.visualizer.*.interfaceTableVisualizer.displayInterfaceTables = true

# Configurator settings
*.configurator.dumpAddresses = true
*.configurator.dumpTopology = true
*.configurator.dumpLinks = true
*.configurator.dumpRoutes = true

[Config veins_bunkyo]
network = artery.veins.BunkyoWorld

*.playgroundSizeX = 4000m
*.playgroundSizeY = 4000m
*.playgroundSizeZ = 50m

*.connectionManager.maxInterfDist = 1500m
*.connectionManager.sendDirect = true
*.connectionManager.coreDebug = false

*.withObstacles = true
*.obstacles.obstacles = xmldoc("veins_config.xml", "//AnalogueModel[@type='SimpleObstacleShadowing']/obstacles")

*.node[*].nic.mac1609_4.useAcks = true
*.node[*].nic.mac1609_4.useServiceChannel = false
*.node[*].nic.mac1609_4.txPower = 126mW
*.node[*].nic.phy80211p.usePropagationDelay = true
*.node[*].nic.phy80211p.sensitivity = -89dBm
*.node[*].nic.phy80211p.useThermalNoise = true
*.node[*].nic.phy80211p.thermalNoise = -110dBm
*.node[*].nic.phy80211p.decider = xmldoc("veins_config.xml")
*.node[*].nic.phy80211p.analogueModels = xmldoc("veins_config.xml")

*.node[*].applType = "artery.veins.ApplicationLayer"
*.node[*].appl.middleware.updateInterval = 0.1s
*.node[*].appl.middleware.datetime = "2013-06-01 12:35:00"
*.node[*].appl.middleware.services = xmldoc("services.xml")
*.node[*].appl.middleware.CaService.fixedRate = true




*.configurator.config = xmldoc("ip.xml")

*.numProxyCamDevs = 2

*.pcam[*].mobility.z = 10

*.pcam[0].mobility.x = 300
*.pcam[0].mobility.y = 500
*.pcam[1].mobility.x = 2000
*.pcam[1].mobility.y = 1000

*.annotations.draw = false

*.pcam[*].router.hasRIP = true
*.pcam[*].*.numUdpApps = 1
*.pcam[*].sensor.udpApp[0].typename = "UDPCamSender"
*.pcam[*].sensor.udpApp[0].datetime = "2013-06-01 12:35:00"
*.pcam[*].sensor.udpApp[0].destAddresses = "255.255.255.255"
*.pcam[*].sensor.udpApp[0].destPort = 1000
*.pcam[*].sensor.udpApp[0].messageLength = 2000B
*.pcam[*].sensor.udpApp[0].sendInterval = 0.1s
*.pcam[*].sensor.udpApp[0].startTime = 1s
*.pcam[*].sensor.udpApp[0].stopTime = 100s
*.pcam[*].sensor.networkLayer.ip.forceBroadcast = true

*.pcam[*].disseminator.udpApp[0].typename = "UDPCamListener"
#*.pcam[*].disseminator.udpApp[0].typename = "UDPEchoApp"
*.pcam[*].disseminator.udpApp[0].localPort = 1000



*.pcam[*].disseminator.nic.mac1609_4.useAcks = true
*.pcam[*].disseminator.nic.mac1609_4.useServiceChannel = false
*.pcam[*].disseminator.nic.mac1609_4.txPower = 126mW
*.pcam[*].disseminator.nic.phy80211p.usePropagationDelay = true
*.pcam[*].disseminator.nic.phy80211p.sensitivity = -89dBm
*.pcam[*].disseminator.nic.phy80211p.useThermalNoise = true
*.pcam[*].disseminator.nic.phy80211p.thermalNoise = -110dBm
*.pcam[*].disseminator.nic.phy80211p.decider = xmldoc("veins_config.xml")
*.pcam[*].disseminator.nic.phy80211p.analogueModels = xmldoc("veins_config.xml")

*.pcam[*].disseminator.applType = "artery.veins.ApplicationLayer"
*.pcam[*].disseminator.appl.middleware.updateInterval = 100000s
# CAMの自動生成を止めるためにupdateIntervalはシミュレーション中にapiが動かないようにする
*.pcam[*].disseminator.appl.middleware.datetime = "2013-06-01 12:35:00"
*.pcam[*].disseminator.appl.middleware.services = xmldoc("pcamServices.xml")
*.pcam[*].disseminator.appl.middleware.RSUCaService.fixedRate = true


*.numRoadSideUnits = 2

*.rsu[*].appl.middleware.updateInterval = 100000s
*.rsu[*].appl.middleware.datetime = "2013-06-01 12:35:00"
*.rsu[*].appl.middleware.services = xmldoc("services.xml")

*.rsu[*].nic.mac1609_4.useAcks = true
*.rsu[*].nic.mac1609_4.useServiceChannel = false
*.rsu[*].nic.mac1609_4.txPower = 126mW
*.rsu[*].nic.phy80211p.sensitivity = -89dBm
*.rsu[*].nic.phy80211p.usePropagationDelay = true
*.rsu[*].nic.phy80211p.useThermalNoise = true
*.rsu[*].nic.phy80211p.thermalNoise = -110dBm
*.rsu[*].nic.phy80211p.decider = xmldoc("veins_config.xml")
*.rsu[*].nic.phy80211p.analogueModels = xmldoc("veins_config.xml")

*.rsu[*].mobility.z = 10

*.rsu[0].mobility.x = 300
*.rsu[0].mobility.y = 500
*.rsu[1].mobility.x = 2000
*.rsu[1].mobility.y = 1000




**.visualizer.*.interfaceTableVisualizer.displayInterfaceTables = true

# Configurator settings
*.configurator.dumpAddresses = true
*.configurator.dumpTopology = true
*.configurator.dumpLinks = true
*.configurator.dumpRoutes = true

[Config inet]
network = artery.inet.World

*.node[*].wlan[*].typename = "VanetNic"
*.node[*].wlan[*].radio.channelNumber = 180
*.node[*].wlan[*].radio.carrierFrequency = 5.9 GHz
*.node[*].wlan[*].radio.transmitter.power = 200 mW

*.node[*].middleware.updateInterval = 0.1s
*.node[*].middleware.datetime = "2013-06-01 12:35:00"
*.node[*].middleware.services = xmldoc("services.xml")


[Config inet_security]
extends = inet

*.node[*].vanetza.security.typename = "SecurityEntity"


[Config inet_multiple_vehicle_types]
extends = inet
# see above for configuration of mapper's random number generator (rng)
seed-1-mt = ${seed=0, 23, 42, 1337, 0815, 4711}
*.traci.mapper.typename = "traci.MultiTypeModuleMapper"
*.traci.mapper.vehicleTypes = xmldoc("vehicles.xml")


[Config envmod]
extends = inet
network = artery.envmod.World
**.identityRegistryModule = "idRegistry"
*.traci.mapper.vehicleType = "artery.envmod.Car"
*.environmentModel.preselectionMethod = ${preseletion=1,2,3}
*.environmentModel.traciModule = "traci"
*.environmentModel.nodeMobilityModule = ".mobility"
*.node[*].middleware.services = xmldoc("services-envmod.xml")
*.node[*].environmentModel.sensors = xmldoc("sensors.xml")


[Config inet_rsu]
extends = inet
*.numRoadSideUnits = 2
*.rsu[*].middleware.datetime = "2013-06-01 12:35:00"
*.rsu[*].middleware.services = xml("<services />")
*.rsu[*].mobility.initialZ = 10m
*.rsu[0].mobility.initialX = 300m
*.rsu[0].mobility.initialY = 500m
*.rsu[1].mobility.initialX = 2000m
*.rsu[1].mobility.initialY = 1000m


[Config veins_rsu]
extends = veins
*.numRoadSideUnits = 2

*.rsu[*].appl.middleware.updateInterval = 0.1s
*.rsu[*].appl.middleware.datetime = "2013-06-01 12:35:00"
*.rsu[*].appl.middleware.services = xml("<services />")

*.rsu[*].nic.mac1609_4.useAcks = true
*.rsu[*].nic.mac1609_4.useServiceChannel = false
*.rsu[*].nic.mac1609_4.txPower = 126mW
*.rsu[*].nic.phy80211p.sensitivity = -89dBm
*.rsu[*].nic.phy80211p.usePropagationDelay = true
*.rsu[*].nic.phy80211p.useThermalNoise = true
*.rsu[*].nic.phy80211p.thermalNoise = -110dBm
*.rsu[*].nic.phy80211p.decider = xmldoc("veins_config.xml")
*.rsu[*].nic.phy80211p.analogueModels = xmldoc("veins_config.xml")

*.rsu[*].mobility.z = 10

*.rsu[0].mobility.x = 300
*.rsu[0].mobility.y = 500
*.rsu[1].mobility.x = 2000
*.rsu[1].mobility.y = 1000


[Config inet_antenna_offset]
extends = inet

*.node[*].withAntennaMobility = true
*.node[*].antennaMobility.offsetX = -2.5 m


[Config delayed_vehicle_insertion]
description = "insert a bulk of vehicles with individual delays"
extends = inet
*.traci.core.startTime = 120 s
*.traci.nodes.typename = "InsertionDelayNodeManager"
