[General]
cmdenv-config-name =
record-eventlog = false
sim-time-limit = 600s
debug-on-errors = true
print-undisposed = true

cmdenv-express-mode = true
cmdenv-autoflush = true

simtime-resolution = ps
**.bin-recording = false
**.cmdenv-log-level = TRACE
**.module-eventlog-recording = false
**.scalar-recording = false
**.statistic-recording = false
**.vector-record-eventnumbers = false
**.vector-recording = false

*.traci.core.version = -1
*.traci.launcher.typename = "PosixLauncher"
*.traci.launcher.sumocfg = "../../extern/veins/examples/veins/grid/grid.sumo.cfg"
*.traci.launcher.sumo = "sumo-gui"

# separate random number generator for vehicle penetration rate
num-rngs = 2
*.traci.mapper.rng-0 = 1

[Config veins]
network = artery.veins.World

*.playgroundSizeX = 4000m
*.playgroundSizeY = 4000m
*.playgroundSizeZ = 50m

*.connectionManager.maxInterfDist = 1500m
*.connectionManager.sendDirect = true
*.connectionManager.coreDebug = false

*.withObstacles = true
*.obstacles.obstacles = xmldoc("veins_config.xml", "//AnalogueModel[@type='SimpleObstacleShadowing']/obstacles")

*.node[*].nic.mac1609_4.useAcks = true
*.node[*].nic.mac1609_4.useServiceChannel = false
*.node[*].nic.mac1609_4.txPower = 126mW
*.node[*].nic.phy80211p.usePropagationDelay = true
*.node[*].nic.phy80211p.sensitivity = -89dBm
*.node[*].nic.phy80211p.useThermalNoise = true
*.node[*].nic.phy80211p.thermalNoise = -110dBm
*.node[*].nic.phy80211p.decider = xmldoc("veins_config.xml")
*.node[*].nic.phy80211p.analogueModels = xmldoc("veins_config.xml")

*.node[*].applType = "artery.veins.ApplicationLayer"
*.node[*].appl.middleware.updateInterval = 0.1s
*.node[*].appl.middleware.datetime = "2013-06-01 12:35:00"
*.node[*].appl.middleware.services = xmldoc("services.xml")
*.node[*].appl.middleware.CaService.fixedRate = true
*.numProxyCamDevs = 2



*.pcam[*].mobility.z = 10

*.pcam[0].mobility.x = 300
*.pcam[0].mobility.y = 500
*.pcam[1].mobility.x = 2000
*.pcam[1].mobility.y = 1000

*.annotations.draw = false

*.pcam[*].*.numUdpApps = 1
*.pcam[*].sensor.udpApp[0].typename = "UDPBasicApp"
*.pcam[*].sensor.udpApp[0].destAddresses = "^.^.disseminator"
#destAddressに使える文字列に'*'は使用できない
*.pcam[*].sensor.udpApp[0].destPort = 1000
*.pcam[*].sensor.udpApp[0].messageLength = 2000B
*.pcam[*].sensor.udpApp[0].sendInterval = 1s
*.pcam[*].sensor.udpApp[0].startTime = 1s
*.pcam[*].sensor.udpApp[0].stopTime = 100s

*.pcam[*].disseminator.udpApp[0].typename = "UDPCAMApp"
*.pcam[*].disseminator.udpApp[0].localPort = 1000

**.visualizer.*.interfaceTableVisualizer.displayInterfaceTables = true

# Configurator settings
*.configurator.dumpAddresses = true
*.configurator.dumpTopology = true
*.configurator.dumpLinks = true
*.configurator.dumpRoutes = true

[Config inet]
network = artery.inet.World

*.node[*].wlan[*].typename = "VanetNic"
*.node[*].wlan[*].radio.channelNumber = 180
*.node[*].wlan[*].radio.carrierFrequency = 5.9 GHz
*.node[*].wlan[*].radio.transmitter.power = 200 mW

*.node[*].middleware.updateInterval = 0.1s
*.node[*].middleware.datetime = "2013-06-01 12:35:00"
*.node[*].middleware.services = xmldoc("services.xml")


[Config inet_security]
extends = inet

*.node[*].vanetza.security.typename = "SecurityEntity"


[Config inet_multiple_vehicle_types]
extends = inet
# see above for configuration of mapper's random number generator (rng)
seed-1-mt = ${seed=0, 23, 42, 1337, 0815, 4711}
*.traci.mapper.typename = "traci.MultiTypeModuleMapper"
*.traci.mapper.vehicleTypes = xmldoc("vehicles.xml")


[Config envmod]
extends = inet
network = artery.envmod.World
**.identityRegistryModule = "idRegistry"
*.traci.mapper.vehicleType = "artery.envmod.Car"
*.environmentModel.preselectionMethod = ${preseletion=1,2,3}
*.environmentModel.traciModule = "traci"
*.environmentModel.nodeMobilityModule = ".mobility"
*.node[*].middleware.services = xmldoc("services-envmod.xml")
*.node[*].environmentModel.sensors = xmldoc("sensors.xml")


[Config inet_rsu]
extends = inet
*.numRoadSideUnits = 2
*.rsu[*].middleware.datetime = "2013-06-01 12:35:00"
*.rsu[*].middleware.services = xml("<services />")
*.rsu[*].mobility.initialZ = 10m
*.rsu[0].mobility.initialX = 300m
*.rsu[0].mobility.initialY = 500m
*.rsu[1].mobility.initialX = 2000m
*.rsu[1].mobility.initialY = 1000m


[Config veins_rsu]
extends = veins
*.numRoadSideUnits = 2

*.rsu[*].appl.middleware.updateInterval = 0.1s
*.rsu[*].appl.middleware.datetime = "2013-06-01 12:35:00"
*.rsu[*].appl.middleware.services = xml("<services />")

*.rsu[*].nic.mac1609_4.useAcks = true
*.rsu[*].nic.mac1609_4.useServiceChannel = false
*.rsu[*].nic.mac1609_4.txPower = 126mW
*.rsu[*].nic.phy80211p.sensitivity = -89dBm
*.rsu[*].nic.phy80211p.usePropagationDelay = true
*.rsu[*].nic.phy80211p.useThermalNoise = true
*.rsu[*].nic.phy80211p.thermalNoise = -110dBm
*.rsu[*].nic.phy80211p.decider = xmldoc("config.xml")
*.rsu[*].nic.phy80211p.analogueModels = xmldoc("config.xml")

*.rsu[*].mobility.z = 10

*.rsu[0].mobility.x = 300
*.rsu[0].mobility.y = 500
*.rsu[1].mobility.x = 2000
*.rsu[1].mobility.y = 1000


[Config inet_antenna_offset]
extends = inet

*.node[*].withAntennaMobility = true
*.node[*].antennaMobility.offsetX = -2.5 m


[Config delayed_vehicle_insertion]
description = "insert a bulk of vehicles with individual delays"
extends = inet
*.traci.core.startTime = 120 s
*.traci.nodes.typename = "InsertionDelayNodeManager"
